REMARK WARNING: 32 MAX_TORS EXCEEDED!!!
REMARK  38 active torsions:
REMARK  status: ('A' for Active; 'I' for Inactive)
REMARK    1  A    between atoms: C2_2  and  O2_3 
REMARK    2  A    between atoms: C3_5  and  O3_6 
REMARK    3  A    between atoms: C4_8  and  O4_9 
REMARK    4  A    between atoms: O4_9  and  C1_15 
REMARK    5  A    between atoms: C5_10  and  C6_12 
REMARK    6  A    between atoms: S1_17  and  N2_19 
REMARK    7  A    between atoms: C2_18  and  N2_19 
REMARK    8  A    between atoms: S2_22  and  O6_34 
REMARK    9  A    between atoms: C3_23  and  O3_24 
REMARK   10  A    between atoms: C4_27  and  O4_28 
REMARK   11  A    between atoms: O4_28  and  C1_36 
REMARK   12  A    between atoms: C5_30  and  C6_33 
REMARK   13  A    between atoms: C6_33  and  O6_34 
REMARK   14  A    between atoms: C2_38  and  O2_39 
REMARK   15  A    between atoms: O2_39  and  S_52 
REMARK   16  A    between atoms: C3_41  and  O3_42 
REMARK   17  A    between atoms: C4_45  and  O4_46 
REMARK   18  A    between atoms: O4_46  and  C1_53 
REMARK   19  A    between atoms: C5_47  and  C6_49 
REMARK   20  A    between atoms: S1_55  and  N2_57 
REMARK   21  A    between atoms: C2_56  and  N2_57 
REMARK   22  A    between atoms: S2_60  and  O6_72 
REMARK   23  A    between atoms: C3_61  and  O3_62 
REMARK   24  A    between atoms: C4_65  and  O4_66 
REMARK   25  A    between atoms: O4_66  and  C1_74 
REMARK   26  A    between atoms: C5_68  and  C6_71 
REMARK   27  A    between atoms: C6_71  and  O6_72 
REMARK   28  A    between atoms: C2_75  and  O2_76 
REMARK   29  A    between atoms: C3_78  and  O3_79 
REMARK   30  A    between atoms: C4_81  and  O4_82 
REMARK   31  A    between atoms: O4_82  and  C1_88 
REMARK   32  A    between atoms: C5_83  and  C6_85 
REMARK   33  A    between atoms: C2_89  and  N2_90 
REMARK       I    between atoms: N2_90  and  C7_102 
REMARK   34  A    between atoms: C3_92  and  O3_93 
REMARK   35  A    between atoms: C4_95  and  O4_96 
REMARK   36  A    between atoms: C5_98  and  C6_100 
REMARK   37  A    between atoms: C6_100  and  O6_101 
REMARK   38  A    between atoms: O6_101  and  S_108 
ROOT
HETATM    1  C1  SGN C   4      10.520  11.071  45.255  1.00 25.95     0.287 C 
HETATM    2  C2  SGN C   4      11.295   9.830  44.801  1.00 24.33     0.182 C 
HETATM    3  C3  SGN C   4      12.428   9.488  45.764  1.00 24.72     0.178 C 
HETATM    4  C4  SGN C   4      13.324  10.698  45.978  1.00 24.11     0.186 C 
HETATM    5  C5  SGN C   4      12.440  11.890  46.347  1.00 25.01     0.181 C 
HETATM    6  O5  SGN C   4      11.448  12.132  45.367  1.00 24.61    -0.349 OA
ENDROOT
BRANCH   1   7
HETATM    7  O4  IDS C   3       9.788  10.835  46.485  1.00 24.52    -0.348 OA
BRANCH   7   8
HETATM    8  C4  IDS C   3       9.050  11.961  46.859  1.00 32.57     0.195 C 
HETATM    9  C3  IDS C   3       7.746  12.063  46.118  1.00 36.22     0.185 C 
HETATM   10  C2  IDS C   3       6.573  11.378  46.785  1.00 37.49     0.231 C 
HETATM   11  C1  IDS C   3       6.605  11.509  48.277  1.00 32.35     0.294 C 
HETATM   12  O5  IDS C   3       7.840  11.117  48.737  1.00 29.95    -0.340 OA
HETATM   13  C5  IDS C   3       8.816  12.004  48.345  1.00 31.73     0.257 C 
BRANCH   9  14
HETATM   14  O3  IDS C   3       7.425  13.400  45.985  1.00 35.64    -0.390 OA
ATOM     15  H3  IDS C   3       8.161  13.830  45.566  1.00  0.00     0.210 HD
ENDBRANCH   9  14
BRANCH  10  16
HETATM   16  O2  IDS C   3       6.506  10.045  46.419  1.00 41.30    -0.244 OA
BRANCH  16  17
HETATM   17  S   IDS C   3       5.207   9.494  45.990  1.00 46.67     0.252 S 
HETATM   18  O1S IDS C   3       4.802  10.098  44.746  1.00 45.84    -0.572 OA
HETATM   19  O2S IDS C   3       5.406   8.047  45.835  1.00 43.53    -0.572 OA
HETATM   20  O3S IDS C   3       4.193   9.742  46.986  1.00 50.85    -0.572 OA
ENDBRANCH  16  17
ENDBRANCH  10  16
BRANCH  11  21
HETATM   21  O4  SGN C   2       6.196  12.844  48.665  1.00 35.63    -0.348 OA
BRANCH  21  22
HETATM   22  C4  SGN C   2       5.787  12.936  50.024  1.00 34.14     0.186 C 
HETATM   23  C3  SGN C   2       6.458  14.169  50.620  1.00 36.01     0.178 C 
HETATM   24  C2  SGN C   2       5.891  14.580  51.981  1.00 38.29     0.182 C 
HETATM   25  C1  SGN C   2       4.362  14.580  51.976  1.00 40.25     0.287 C 
HETATM   26  O5  SGN C   2       3.893  13.336  51.495  1.00 40.44    -0.349 OA
HETATM   27  C5  SGN C   2       4.271  13.087  50.144  1.00 39.12     0.181 C 
BRANCH  23  28
HETATM   28  O3  SGN C   2       7.843  13.948  50.740  1.00 37.94    -0.391 OA
ATOM     29  H3  SGN C   2       8.195  13.693  49.895  1.00  0.00     0.210 HD
ENDBRANCH  23  28
BRANCH  24  30
HETATM   30  N2  SGN C   2       6.402  15.907  52.271  1.00 38.07    -0.289 N 
ATOM     31  H2  SGN C   2       6.607  16.537  51.495  1.00  0.00     0.175 HD
BRANCH  30  32
HETATM   32  S1  SGN C   2       6.654  16.415  53.766  1.00 51.36     0.205 S 
HETATM   33  O1S SGN C   2       7.335  17.703  53.686  1.00 53.59    -0.578 OA
HETATM   34  O2S SGN C   2       5.344  16.559  54.394  1.00 50.52    -0.578 OA
HETATM   35  O3S SGN C   2       7.478  15.389  54.397  1.00 54.39    -0.578 OA
ENDBRANCH  30  32
ENDBRANCH  24  30
BRANCH  25  36
HETATM   36  O4  BDP C   1       3.897  15.702  51.191  1.00 42.04    -0.348 OA
BRANCH  36  37
HETATM   37  C4  BDP C   1       2.552  15.972  51.391  1.00 48.48     0.195 C 
HETATM   38  C3  BDP C   1       2.416  17.044  52.421  1.00 51.01     0.181 C 
HETATM   39  C2  BDP C   1       1.043  17.621  52.447  1.00 53.01     0.173 C 
HETATM   40  C1  BDP C   1       0.580  17.988  51.080  1.00 54.14     0.203 C 
HETATM   41  O5  BDP C   1       0.656  16.870  50.276  1.00 54.15    -0.370 OA
HETATM   42  C5  BDP C   1       1.956  16.422  50.082  1.00 51.87     0.253 C 
BRANCH  38  43
HETATM   43  O3  BDP C   1       2.680  16.519  53.671  1.00 52.92    -0.390 OA
ATOM     44  H3  BDP C   1       3.556  16.151  53.654  1.00  0.00     0.210 HD
ENDBRANCH  38  43
BRANCH  39  45
HETATM   45  O2  BDP C   1       1.044  18.761  53.227  1.00 53.19    -0.391 OA
ATOM     46  H2  BDP C   1       1.339  18.527  54.099  1.00  0.00     0.210 HD
ENDBRANCH  39  45
BRANCH  42  47
HETATM   47  C6  BDP C   1       1.943  15.330  49.055  1.00 51.57     0.205 C 
HETATM   48  O6A BDP C   1       2.831  15.298  48.164  1.00 52.65    -0.646 OA
HETATM   49  O6B BDP C   1       1.040  14.451  49.079  1.00 51.09    -0.646 OA
ENDBRANCH  42  47
ENDBRANCH  36  37
ENDBRANCH  25  36
BRANCH  27  50
HETATM   50  C6  SGN C   2       3.523  11.866  49.618  1.00 42.92     0.227 C 
BRANCH  50  51
HETATM   51  O6  SGN C   2       3.730  10.761  50.470  1.00 46.75    -0.254 OA
BRANCH  51  52
HETATM   52  S2  SGN C   2       2.656   9.627  50.562  1.00 56.56     0.251 S 
HETATM   53  O4S SGN C   2       1.415  10.249  51.020  1.00 58.52    -0.572 OA
HETATM   54  O5S SGN C   2       2.507   9.033  49.239  1.00 53.95    -0.572 OA
HETATM   55  O6S SGN C   2       3.155   8.641  51.511  1.00 54.13    -0.572 OA
ENDBRANCH  51  52
ENDBRANCH  50  51
ENDBRANCH  27  50
ENDBRANCH  21  22
ENDBRANCH  11  21
BRANCH  13  56
HETATM   56  C6  IDS C   3      10.080  11.650  49.063  1.00 33.29     0.206 C 
HETATM   57  O6A IDS C   3      10.974  12.517  49.242  1.00 34.35    -0.646 OA
HETATM   58  O6B IDS C   3      10.254  10.474  49.481  1.00 34.80    -0.646 OA
ENDBRANCH  13  56
ENDBRANCH   7   8
ENDBRANCH   1   7
BRANCH   2  59
HETATM   59  N2  SGN C   4      10.419   8.682  44.650  1.00 24.47    -0.289 N 
ATOM     60  H2  SGN C   4      10.363   7.958  45.367  1.00  0.00     0.175 HD
BRANCH  59  61
HETATM   61  S1  SGN C   4       9.546   8.599  43.315  1.00 23.01     0.205 S 
HETATM   62  O1S SGN C   4       8.636   9.730  43.295  1.00 23.82    -0.578 OA
HETATM   63  O2S SGN C   4      10.460   8.659  42.179  1.00 21.15    -0.578 OA
HETATM   64  O3S SGN C   4       8.848   7.318  43.392  1.00 24.34    -0.578 OA
ENDBRANCH  59  61
ENDBRANCH   2  59
BRANCH   3  65
HETATM   65  O3  SGN C   4      13.182   8.410  45.244  1.00 24.01    -0.391 OA
ATOM     66  H3  SGN C   4      13.887   8.197  45.844  1.00  0.00     0.210 HD
ENDBRANCH   3  65
BRANCH   5  67
HETATM   67  C6  SGN C   4      13.246  13.171  46.522  1.00 29.42     0.227 C 
BRANCH  67  68
HETATM   68  O6  SGN C   4      13.930  13.491  45.331  1.00 33.38    -0.254 OA
BRANCH  68  69
HETATM   69  S2  SGN C   4      14.850  14.763  45.327  1.00 42.75     0.251 S 
HETATM   70  O4S SGN C   4      15.364  14.931  43.974  1.00 44.95    -0.572 OA
HETATM   71  O5S SGN C   4      14.003  15.866  45.757  1.00 42.87    -0.572 OA
HETATM   72  O6S SGN C   4      15.914  14.526  46.295  1.00 40.27    -0.572 OA
ENDBRANCH  68  69
ENDBRANCH  67  68
ENDBRANCH   5  67
BRANCH   4  73
HETATM   73  O4  SGN C   4      14.207  10.394  47.048  1.00 25.89    -0.348 OA
BRANCH  73  74
HETATM   74  C1  BDP C   5      15.563  10.840  46.835  1.00 28.36     0.292 C 
HETATM   75  C2  BDP C   5      16.253  11.041  48.150  1.00 31.13     0.204 C 
HETATM   76  C3  BDP C   5      17.617  11.603  47.952  1.00 33.85     0.183 C 
HETATM   77  C4  BDP C   5      18.404  10.804  46.968  1.00 31.81     0.195 C 
HETATM   78  C5  BDP C   5      17.559  10.500  45.751  1.00 27.14     0.257 C 
HETATM   79  O5  BDP C   5      16.325   9.946  46.100  1.00 24.75    -0.340 OA
BRANCH  75  80
HETATM   80  O2  BDP C   5      15.535  11.914  48.954  1.00 34.37    -0.388 OA
ATOM     81  H2  BDP C   5      15.972  12.041  49.788  1.00  0.00     0.210 HD
ENDBRANCH  75  80
BRANCH  76  82
HETATM   82  O3  BDP C   5      18.254  11.604  49.179  1.00 34.34    -0.390 OA
ATOM     83  H3  BDP C   5      19.125  11.963  49.053  1.00  0.00     0.210 HD
ENDBRANCH  76  82
BRANCH  77  84
HETATM   84  O4  BDP C   5      19.510  11.541  46.545  1.00 33.34    -0.348 OA
BRANCH  84  85
HETATM   85  C1  NGY C   6      20.653  11.449  47.427  1.00 35.33     0.286 C 
HETATM   86  C2  NGY C   6      21.402  12.739  47.368  1.00 39.33     0.170 C 
HETATM   87  C3  NGY C   6      21.980  12.886  46.004  1.00 39.13     0.177 C 
HETATM   88  C4  NGY C   6      22.886  11.733  45.749  1.00 37.06     0.180 C 
HETATM   89  C5  NGY C   6      22.069  10.487  45.857  1.00 32.98     0.181 C 
HETATM   90  O5  NGY C   6      21.521  10.418  47.121  1.00 32.46    -0.349 OA
BRANCH  86  91
HETATM   91  N2  NGY C   6      20.501  13.824  47.610  1.00 39.90    -0.349 N 
HETATM   92  C7  NGY C   6      20.895  14.920  48.437  1.00 44.73     0.214 C 
HETATM   93  O7  NGY C   6      22.007  14.938  48.946  1.00 46.19    -0.274 OA
HETATM   94  C8  NGY C   6      19.936  16.039  48.673  1.00 43.79     0.117 C 
ATOM     95  H2  NGY C   6      19.572  13.815  47.189  1.00  0.00     0.163 HD
ENDBRANCH  86  91
BRANCH  87  96
HETATM   96  O3  NGY C   6      22.675  14.072  45.904  1.00 44.02    -0.391 OA
ATOM     97  H3  NGY C   6      23.044  14.166  45.034  1.00  0.00     0.210 HD
ENDBRANCH  87  96
BRANCH  88  98
HETATM   98  O4  NGY C   6      23.418  11.840  44.484  1.00 37.39    -0.390 OA
ATOM     99  H4  NGY C   6      23.996  11.104  44.321  1.00  0.00     0.210 HD
ENDBRANCH  88  98
BRANCH  89 100
HETATM  100  C6  NGY C   6      22.888   9.268  45.567  1.00 31.91     0.227 C 
BRANCH 100 101
HETATM  101  O6  NGY C   6      24.059   9.247  46.301  1.00 36.15    -0.254 OA
BRANCH 101 102
HETATM  102  S   NGY C   6      24.799   7.977  46.475  1.00 34.85     0.251 S 
HETATM  103  O7A NGY C   6      25.246   7.477  45.201  1.00 33.41    -0.572 OA
HETATM  104  O8  NGY C   6      23.849   7.051  47.090  1.00 30.21    -0.572 OA
HETATM  105  O9  NGY C   6      25.939   8.208  47.330  1.00 38.01    -0.572 OA
ENDBRANCH 101 102
ENDBRANCH 100 101
ENDBRANCH  89 100
ENDBRANCH  84  85
ENDBRANCH  77  84
BRANCH  78 106
HETATM  106  C6  BDP C   5      18.256   9.615  44.762  1.00 29.31     0.206 C 
HETATM  107  O6A BDP C   5      18.528  10.055  43.617  1.00 32.10    -0.646 OA
HETATM  108  O6B BDP C   5      18.554   8.430  45.062  1.00 26.46    -0.646 OA
ENDBRANCH  78 106
ENDBRANCH  73  74
ENDBRANCH   4  73
TORSDOF 38
