lig_xray
  PyMOL2.5          3D                             0

 96101  0  0  0  0  0  0  0  0999 V2000
    0.5800   17.9880   51.0800 C   0  0  0  0  0  0  0  0  0  0  0  0
    1.0430   17.6210   52.4470 C   0  0  0  0  0  0  0  0  0  0  0  0
    1.0440   18.7610   53.2270 O   0  0  0  0  0  0  0  0  0  0  0  0
    2.4160   17.0440   52.4210 C   0  0  0  0  0  0  0  0  0  0  0  0
    2.6800   16.5190   53.6710 O   0  0  0  0  0  0  0  0  0  0  0  0
    2.5520   15.9720   51.3910 C   0  0  0  0  0  0  0  0  0  0  0  0
    3.8970   15.7020   51.1910 O   0  0  0  0  0  0  0  0  0  0  0  0
    1.9560   16.4220   50.0820 C   0  0  0  0  0  0  0  0  0  0  0  0
    0.6560   16.8700   50.2760 O   0  0  0  0  0  0  0  0  0  0  0  0
    1.9430   15.3300   49.0550 C   0  0  0  0  0  0  0  0  0  0  0  0
    2.8310   15.2980   48.1640 O   0  0  0  0  0  0  0  0  0  0  0  0
    1.0400   14.4510   49.0790 O   0  0  0  0  0  0  0  0  0  0  0  0
    4.3620   14.5800   51.9760 C   0  0  0  0  0  0  0  0  0  0  0  0
    7.3350   17.7030   53.6860 O   0  0  0  0  0  0  0  0  0  0  0  0
    6.6540   16.4150   53.7660 S   0  0  0  0  0  0  0  0  0  0  0  0
    5.8910   14.5800   51.9810 C   0  0  0  0  0  0  0  0  0  0  0  0
    6.4020   15.9070   52.2710 N   0  0  0  0  0  0  0  0  0  0  0  0
    5.3440   16.5590   54.3940 O   0  0  0  0  0  0  0  0  0  0  0  0
    2.6560    9.6270   50.5620 S   0  0  0  0  0  0  0  0  0  0  0  0
    6.4580   14.1690   50.6200 C   0  0  0  0  0  0  0  0  0  0  0  0
    7.8430   13.9480   50.7400 O   0  0  0  0  0  0  0  0  0  0  0  0
    7.4780   15.3890   54.3970 O   0  0  0  0  0  0  0  0  0  0  0  0
    5.7870   12.9360   50.0240 C   0  0  0  0  0  0  0  0  0  0  0  0
    6.1960   12.8440   48.6650 O   0  0  0  0  0  0  0  0  0  0  0  0
    1.4150   10.2490   51.0200 O   0  0  0  0  0  0  0  0  0  0  0  0
    4.2710   13.0870   50.1440 C   0  0  0  0  0  0  0  0  0  0  0  0
    3.8930   13.3360   51.4950 O   0  0  0  0  0  0  0  0  0  0  0  0
    2.5070    9.0330   49.2390 O   0  5  0  0  0  0  0  0  0  0  0  0
    3.5230   11.8660   49.6180 C   0  0  0  0  0  0  0  0  0  0  0  0
    3.7300   10.7610   50.4700 O   0  0  0  0  0  0  0  0  0  0  0  0
    3.1550    8.6410   51.5110 O   0  0  0  0  0  0  0  0  0  0  0  0
    6.6050   11.5090   48.2770 C   0  0  0  0  0  0  0  0  0  0  0  0
    4.8020   10.0980   44.7460 O   0  0  0  0  0  0  0  0  0  0  0  0
    6.5730   11.3780   46.7850 C   0  0  0  0  0  0  0  0  0  0  0  0
    6.5060   10.0450   46.4190 O   0  0  0  0  0  0  0  0  0  0  0  0
    5.4060    8.0470   45.8350 O   0  5  0  0  0  0  0  0  0  0  0  0
    7.7460   12.0630   46.1180 C   0  0  0  0  0  0  0  0  0  0  0  0
    7.4250   13.4000   45.9850 O   0  0  0  0  0  0  0  0  0  0  0  0
    4.1930    9.7420   46.9860 O   0  0  0  0  0  0  0  0  0  0  0  0
    9.0500   11.9610   46.8590 C   0  0  0  0  0  0  0  0  0  0  0  0
    9.7880   10.8350   46.4850 O   0  0  0  0  0  0  0  0  0  0  0  0
    8.8160   12.0040   48.3450 C   0  0  0  0  0  0  0  0  0  0  0  0
    7.8400   11.1170   48.7370 O   0  0  0  0  0  0  0  0  0  0  0  0
   10.0800   11.6500   49.0630 C   0  0  0  0  0  0  0  0  0  0  0  0
   10.9740   12.5170   49.2420 O   0  0  0  0  0  0  0  0  0  0  0  0
   10.2540   10.4740   49.4810 O   0  0  0  0  0  0  0  0  0  0  0  0
    5.2070    9.4940   45.9900 S   0  0  0  0  0  0  0  0  0  0  0  0
   10.5200   11.0710   45.2550 C   0  0  0  0  0  0  0  0  0  0  0  0
    8.6360    9.7300   43.2950 O   0  0  0  0  0  0  0  0  0  0  0  0
    9.5460    8.5990   43.3150 S   0  0  0  0  0  0  0  0  0  0  0  0
   11.2950    9.8300   44.8010 C   0  0  0  0  0  0  0  0  0  0  0  0
   10.4190    8.6820   44.6500 N   0  0  0  0  0  0  0  0  0  0  0  0
   10.4600    8.6590   42.1790 O   0  0  0  0  0  0  0  0  0  0  0  0
   14.8500   14.7630   45.3270 S   0  0  0  0  0  0  0  0  0  0  0  0
   12.4280    9.4880   45.7640 C   0  0  0  0  0  0  0  0  0  0  0  0
   13.1820    8.4100   45.2440 O   0  0  0  0  0  0  0  0  0  0  0  0
    8.8480    7.3180   43.3920 O   0  0  0  0  0  0  0  0  0  0  0  0
   13.3240   10.6980   45.9780 C   0  0  0  0  0  0  0  0  0  0  0  0
   14.2070   10.3940   47.0480 O   0  0  0  0  0  0  0  0  0  0  0  0
   15.3640   14.9310   43.9740 O   0  0  0  0  0  0  0  0  0  0  0  0
   12.4400   11.8900   46.3470 C   0  0  0  0  0  0  0  0  0  0  0  0
   11.4480   12.1320   45.3670 O   0  0  0  0  0  0  0  0  0  0  0  0
   14.0030   15.8660   45.7570 O   0  5  0  0  0  0  0  0  0  0  0  0
   13.2460   13.1710   46.5220 C   0  0  0  0  0  0  0  0  0  0  0  0
   13.9300   13.4910   45.3310 O   0  0  0  0  0  0  0  0  0  0  0  0
   15.9140   14.5260   46.2950 O   0  0  0  0  0  0  0  0  0  0  0  0
   15.5630   10.8400   46.8350 C   0  0  0  0  0  0  0  0  0  0  0  0
   16.2530   11.0410   48.1500 C   0  0  0  0  0  0  0  0  0  0  0  0
   15.5350   11.9140   48.9540 O   0  0  0  0  0  0  0  0  0  0  0  0
   17.6170   11.6030   47.9520 C   0  0  0  0  0  0  0  0  0  0  0  0
   18.2540   11.6040   49.1790 O   0  0  0  0  0  0  0  0  0  0  0  0
   18.4040   10.8040   46.9680 C   0  0  0  0  0  0  0  0  0  0  0  0
   19.5100   11.5410   46.5450 O   0  0  0  0  0  0  0  0  0  0  0  0
   17.5590   10.5000   45.7510 C   0  0  0  0  0  0  0  0  0  0  0  0
   16.3250    9.9460   46.1000 O   0  0  0  0  0  0  0  0  0  0  0  0
   18.2560    9.6150   44.7620 C   0  0  0  0  0  0  0  0  0  0  0  0
   18.5280   10.0550   43.6170 O   0  0  0  0  0  0  0  0  0  0  0  0
   18.5540    8.4300   45.0620 O   0  0  0  0  0  0  0  0  0  0  0  0
   20.6530   11.4490   47.4270 C   0  0  0  0  0  0  0  0  0  0  0  0
   21.4020   12.7390   47.3680 C   0  0  0  0  0  0  0  0  0  0  0  0
   20.5010   13.8240   47.6100 N   0  0  0  0  0  0  0  0  0  0  0  0
   21.9800   12.8860   46.0040 C   0  0  0  0  0  0  0  0  0  0  0  0
   22.6750   14.0720   45.9040 O   0  0  0  0  0  0  0  0  0  0  0  0
   22.8860   11.7330   45.7490 C   0  0  0  0  0  0  0  0  0  0  0  0
   23.4180   11.8400   44.4840 O   0  0  0  0  0  0  0  0  0  0  0  0
   22.0690   10.4870   45.8570 C   0  0  0  0  0  0  0  0  0  0  0  0
   21.5210   10.4180   47.1210 O   0  0  0  0  0  0  0  0  0  0  0  0
   22.8880    9.2680   45.5670 C   0  0  0  0  0  0  0  0  0  0  0  0
   24.0590    9.2470   46.3010 O   0  0  0  0  0  0  0  0  0  0  0  0
   20.8950   14.9200   48.4370 C   0  0  0  0  0  0  0  0  0  0  0  0
   22.0070   14.9380   48.9460 O   0  0  0  0  0  0  0  0  0  0  0  0
   25.2460    7.4770   45.2010 O   0  0  0  0  0  0  0  0  0  0  0  0
   19.9360   16.0390   48.6730 C   0  0  0  0  0  0  0  0  0  0  0  0
   23.8490    7.0510   47.0900 O   0  5  0  0  0  0  0  0  0  0  0  0
   25.9390    8.2080   47.3300 O   0  0  0  0  0  0  0  0  0  0  0  0
   24.7990    7.9770   46.4750 S   0  0  0  0  0  0  0  0  0  0  0  0
  1  2  1  0  0  0  0
  1  9  1  0  0  0  0
  2  3  1  0  0  0  0
  2  4  1  0  0  0  0
  4  5  1  0  0  0  0
  4  6  1  0  0  0  0
  6  7  1  0  0  0  0
  6  8  1  0  0  0  0
  7 13  1  0  0  0  0
  8  9  1  0  0  0  0
  8 10  1  0  0  0  0
 10 11  4  0  0  0  0
 10 12  4  0  0  0  0
 13 16  1  0  0  0  0
 13 27  1  0  0  0  0
 14 15  1  0  0  0  0
 15 17  1  0  0  0  0
 15 18  2  0  0  0  0
 15 22  2  0  0  0  0
 16 17  1  0  0  0  0
 16 20  1  0  0  0  0
 19 25  1  0  0  0  0
 19 28  1  0  0  0  0
 19 30  1  0  0  0  0
 19 31  2  0  0  0  0
 20 21  1  0  0  0  0
 20 23  1  0  0  0  0
 23 24  1  0  0  0  0
 23 26  1  0  0  0  0
 24 32  1  0  0  0  0
 26 27  1  0  0  0  0
 26 29  1  0  0  0  0
 29 30  1  0  0  0  0
 32 34  1  0  0  0  0
 32 43  1  0  0  0  0
 33 47  1  0  0  0  0
 34 35  1  0  0  0  0
 34 37  1  0  0  0  0
 35 47  1  0  0  0  0
 36 47  1  0  0  0  0
 37 38  1  0  0  0  0
 37 40  1  0  0  0  0
 39 47  2  0  0  0  0
 40 41  1  0  0  0  0
 40 42  1  0  0  0  0
 41 48  1  0  0  0  0
 42 43  1  0  0  0  0
 42 44  1  0  0  0  0
 44 45  4  0  0  0  0
 44 46  4  0  0  0  0
 48 51  1  0  0  0  0
 48 62  1  0  0  0  0
 49 50  1  0  0  0  0
 50 52  1  0  0  0  0
 50 53  2  0  0  0  0
 50 57  2  0  0  0  0
 51 52  1  0  0  0  0
 51 55  1  0  0  0  0
 54 60  1  0  0  0  0
 54 63  1  0  0  0  0
 54 65  1  0  0  0  0
 54 66  2  0  0  0  0
 55 56  1  0  0  0  0
 55 58  1  0  0  0  0
 58 59  1  0  0  0  0
 58 61  1  0  0  0  0
 59 67  1  0  0  0  0
 61 62  1  0  0  0  0
 61 64  1  0  0  0  0
 64 65  1  0  0  0  0
 67 68  1  0  0  0  0
 67 75  1  0  0  0  0
 68 69  1  0  0  0  0
 68 70  1  0  0  0  0
 70 71  1  0  0  0  0
 70 72  1  0  0  0  0
 72 73  1  0  0  0  0
 72 74  1  0  0  0  0
 73 79  1  0  0  0  0
 74 75  1  0  0  0  0
 74 76  1  0  0  0  0
 76 77  4  0  0  0  0
 76 78  4  0  0  0  0
 79 80  1  0  0  0  0
 79 87  1  0  0  0  0
 80 81  1  0  0  0  0
 80 82  1  0  0  0  0
 81 90  1  0  0  0  0
 82 83  1  0  0  0  0
 82 84  1  0  0  0  0
 84 85  1  0  0  0  0
 84 86  1  0  0  0  0
 86 87  1  0  0  0  0
 86 88  1  0  0  0  0
 88 89  1  0  0  0  0
 89 96  1  0  0  0  0
 90 91  2  0  0  0  0
 90 93  1  0  0  0  0
 92 96  1  0  0  0  0
 94 96  1  0  0  0  0
 95 96  2  0  0  0  0
M  END
>  <pdb_header>
CRYST1   52.883   62.168   86.373  90.00  95.16  90.00 P 1 21 1      4


$$$$
