Run_1_Vina
  PyMOL2.5          3D                             0

108113  0  0  0  0  0  0  0  0999 V2000
    2.8740    7.2170   42.8520 C   0  0  0  0  0  0  0  0  0  0  0  0
    3.6790    8.0120   41.8850 C   0  0  0  0  0  0  0  0  0  0  0  0
    4.5270    7.1530   41.2140 O   0  0  0  0  0  0  0  0  0  0  0  0
    4.4860    9.0560   42.5760 C   0  0  0  0  0  0  0  0  0  0  0  0
    5.0150    9.8920   41.6120 O   0  0  0  0  0  0  0  0  0  0  0  0
    3.6650    9.8550   43.5330 C   0  0  0  0  0  0  0  0  0  0  0  0
    4.5080   10.5760   44.3640 O   0  0  0  0  0  0  0  0  0  0  0  0
    2.8170    8.9460   44.3850 C   0  0  0  0  0  0  0  0  0  0  0  0
    2.0850    8.0810   43.5820 O   0  0  0  0  0  0  0  0  0  0  0  0
    1.8720    9.7050   45.2660 C   0  0  0  0  0  0  0  0  0  0  0  0
    0.9500   10.3890   44.7520 O   0  0  0  0  0  0  0  0  0  0  0  0
    2.0060    9.6660   46.5190 O   0  0  0  0  0  0  0  0  0  0  0  0
    4.0760    6.3270   41.0870 H   0  0  0  0  0  0  0  0  0  0  0  0
    4.5560    9.7240   40.7970 H   0  0  0  0  0  0  0  0  0  0  0  0
    4.0340   11.9200   44.6070 C   0  0  0  0  0  0  0  0  0  0  0  0
    5.6300   14.6260   41.3760 O   0  0  0  0  0  0  0  0  0  0  0  0
    4.8780   13.3770   41.3230 S   0  0  0  0  0  0  0  0  0  0  0  0
    4.9970   12.9100   43.9500 C   0  0  0  0  0  0  0  0  0  0  0  0
    5.3020   12.5020   42.5910 N   0  0  0  0  0  0  0  0  0  0  0  0
    5.2340   12.6080   40.1350 O   0  0  0  0  0  0  0  0  0  0  0  0
    4.9850    9.7510   49.0840 S   0  0  0  0  0  0  0  0  0  0  0  0
    6.3260   12.9870   44.7050 C   0  0  0  0  0  0  0  0  0  0  0  0
    7.0770   14.0730   44.2160 O   0  0  0  0  0  0  0  0  0  0  0  0
    3.4400   13.5890   41.4540 O   0  0  0  0  0  0  0  0  0  0  0  0
    6.1660   13.1060   46.2170 C   0  0  0  0  0  0  0  0  0  0  0  0
    7.4430   12.8760   46.7990 O   0  0  0  0  0  0  0  0  0  0  0  0
    4.1600    9.0540   50.0700 O   0  0  0  0  0  0  0  0  0  0  0  0
    5.1400   12.0790   46.6920 C   0  0  0  0  0  0  0  0  0  0  0  0
    3.9130   12.2240   45.9830 O   0  0  0  0  0  0  0  0  0  0  0  0
    5.2270    8.9300   47.9050 O   0  5  0  0  0  0  0  0  0  0  0  0
    4.8800   12.1690   48.1920 C   0  0  0  0  0  0  0  0  0  0  0  0
    4.1900   11.0230   48.6390 O   0  0  0  0  0  0  0  0  0  0  0  0
    6.2440   10.2100   49.6540 O   0  0  0  0  0  0  0  0  0  0  0  0
    5.8040   11.6260   42.4410 H   0  0  0  0  0  0  0  0  0  0  0  0
    6.8810   14.8470   44.7310 H   0  0  0  0  0  0  0  0  0  0  0  0
    7.8600   11.4890   46.7400 C   0  0  0  0  0  0  0  0  0  0  0  0
    9.6840    9.2500   43.1330 O   0  0  0  0  0  0  0  0  0  0  0  0
    8.6100   11.2350   45.4680 C   0  0  0  0  0  0  0  0  0  0  0  0
    8.6140    9.8830   45.1720 O   0  0  0  0  0  0  0  0  0  0  0  0
    7.6300    8.2210   43.8260 O   0  5  0  0  0  0  0  0  0  0  0  0
   10.0190   11.7840   45.5060 C   0  0  0  0  0  0  0  0  0  0  0  0
    9.9520   13.1230   45.1720 O   0  0  0  0  0  0  0  0  0  0  0  0
    7.6790   10.4690   43.0400 O   0  0  0  0  0  0  0  0  0  0  0  0
   10.7160   11.6610   46.8320 C   0  0  0  0  0  0  0  0  0  0  0  0
   11.4240   10.4630   46.9530 O   0  0  0  0  0  0  0  0  0  0  0  0
    9.7370   11.8450   47.9600 C   0  0  0  0  0  0  0  0  0  0  0  0
    8.6190   11.0590   47.8030 O   0  0  0  0  0  0  0  0  0  0  0  0
   10.3870   11.4720   49.2550 C   0  0  0  0  0  0  0  0  0  0  0  0
   11.4630   12.0210   49.6080 O   0  0  0  0  0  0  0  0  0  0  0  0
    9.8590   10.5960   49.9910 O   0  0  0  0  0  0  0  0  0  0  0  0
    8.4110    9.4640   43.7730 S   0  0  0  0  0  0  0  0  0  0  0  0
    9.4400   13.1930   44.3750 H   0  0  0  0  0  0  0  0  0  0  0  0
   12.0480   10.0920   45.6970 C   0  0  0  0  0  0  0  0  0  0  0  0
   14.3190    6.7070   45.1360 O   0  0  0  0  0  0  0  0  0  0  0  0
   13.4730    6.5180   46.3010 S   0  0  0  0  0  0  0  0  0  0  0  0
   13.1750    9.0730   45.8950 C   0  0  0  0  0  0  0  0  0  0  0  0
   12.7040    7.8880   46.5880 N   0  0  0  0  0  0  0  0  0  0  0  0
   14.2820    6.2050   47.4740 O   0  0  0  0  0  0  0  0  0  0  0  0
   12.5650   14.2980   43.2240 S   0  0  0  0  0  0  0  0  0  0  0  0
   14.3550    9.6760   46.6510 C   0  0  0  0  0  0  0  0  0  0  0  0
   15.4110    8.7360   46.7070 O   0  0  0  0  0  0  0  0  0  0  0  0
   12.4230    5.5280   46.0760 O   0  0  0  0  0  0  0  0  0  0  0  0
   14.8250   10.9510   45.9690 C   0  0  0  0  0  0  0  0  0  0  0  0
   15.7560   11.5830   46.8350 O   0  0  0  0  0  0  0  0  0  0  0  0
   11.2890   13.7270   42.8140 O   0  0  0  0  0  0  0  0  0  0  0  0
   13.6110   11.8540   45.7510 C   0  0  0  0  0  0  0  0  0  0  0  0
   12.5960   11.2010   45.0120 O   0  0  0  0  0  0  0  0  0  0  0  0
   12.5690   15.7530   43.2130 O   0  5  0  0  0  0  0  0  0  0  0  0
   13.9740   13.1370   45.0140 C   0  0  0  0  0  0  0  0  0  0  0  0
   12.8130   13.8820   44.7170 O   0  0  0  0  0  0  0  0  0  0  0  0
   13.6790   13.7760   42.4420 O   0  0  0  0  0  0  0  0  0  0  0  0
   11.9140    7.9280   47.2330 H   0  0  0  0  0  0  0  0  0  0  0  0
   15.0590    7.8730   46.8930 H   0  0  0  0  0  0  0  0  0  0  0  0
   17.0730   11.7430   46.2670 C   0  0  0  0  0  0  0  0  0  0  0  0
   17.9990   10.6950   46.8050 C   0  0  0  0  0  0  0  0  0  0  0  0
   18.0210   10.7220   48.1910 O   0  0  0  0  0  0  0  0  0  0  0  0
   19.3870   10.9100   46.3110 C   0  0  0  0  0  0  0  0  0  0  0  0
   20.1460    9.8230   46.7030 O   0  0  0  0  0  0  0  0  0  0  0  0
   19.4270   11.0530   44.8270 C   0  0  0  0  0  0  0  0  0  0  0  0
   20.6520   11.5990   44.4420 O   0  0  0  0  0  0  0  0  0  0  0  0
   18.3370   11.9950   44.3660 C   0  0  0  0  0  0  0  0  0  0  0  0
   17.0890   11.6400   44.8850 O   0  0  0  0  0  0  0  0  0  0  0  0
   18.2560   12.1090   42.8730 C   0  0  0  0  0  0  0  0  0  0  0  0
   18.0520   13.2310   42.3450 O   0  0  0  0  0  0  0  0  0  0  0  0
   18.3720   11.0890   42.1460 O   0  0  0  0  0  0  0  0  0  0  0  0
   18.8440   10.3820   48.5220 H   0  0  0  0  0  0  0  0  0  0  0  0
   19.7750    9.0490   46.2960 H   0  0  0  0  0  0  0  0  0  0  0  0
   21.2940   12.3890   45.4700 C   0  0  0  0  0  0  0  0  0  0  0  0
   21.8150   13.6420   44.8490 C   0  0  0  0  0  0  0  0  0  0  0  0
   20.7650   14.2850   44.1200 N   0  0  0  0  0  0  0  0  0  0  0  0
   22.9070   13.2800   43.9030 C   0  0  0  0  0  0  0  0  0  0  0  0
   23.4120   14.4110   43.2990 O   0  0  0  0  0  0  0  0  0  0  0  0
   23.9770   12.5790   44.6640 C   0  0  0  0  0  0  0  0  0  0  0  0
   24.9900   12.2190   43.8040 O   0  0  0  0  0  0  0  0  0  0  0  0
   23.3680   11.3600   45.2770 C   0  0  0  0  0  0  0  0  0  0  0  0
   22.3370   11.7440   46.1090 O   0  0  0  0  0  0  0  0  0  0  0  0
   24.3850   10.5590   46.0280 C   0  0  0  0  0  0  0  0  0  0  0  0
   23.8790    9.3400   46.4410 O   0  0  0  0  0  0  0  0  0  0  0  0
   20.1030   15.4280   44.6640 C   0  0  0  0  0  0  0  0  0  0  0  0
   20.4310   15.8660   45.7580 O   0  0  0  0  0  0  0  0  0  0  0  0
   25.8740    8.3910   47.3710 O   0  0  0  0  0  0  0  0  0  0  0  0
   19.0110   16.0800   43.8830 C   0  0  0  0  0  0  0  0  0  0  0  0
   25.2210    7.9480   45.1170 O   0  5  0  0  0  0  0  0  0  0  0  0
   24.0020    7.0210   46.9660 O   0  0  0  0  0  0  0  0  0  0  0  0
   24.7610    8.1530   46.4900 S   0  0  0  0  0  0  0  0  0  0  0  0
   20.4860   13.9240   43.2080 H   0  0  0  0  0  0  0  0  0  0  0  0
   23.5460   15.0970   43.9430 H   0  0  0  0  0  0  0  0  0  0  0  0
   24.6260   12.0420   42.9450 H   0  0  0  0  0  0  0  0  0  0  0  0
  1  9  1  0  0  0  0
  1  2  1  0  0  0  0
  2  3  1  0  0  0  0
  3 13  1  0  0  0  0
  2  4  1  0  0  0  0
  4  5  1  0  0  0  0
  5 14  1  0  0  0  0
  4  6  1  0  0  0  0
  6  8  1  0  0  0  0
  6  7  1  0  0  0  0
  8 10  1  0  0  0  0
  8  9  1  0  0  0  0
 10 11  4  0  0  0  0
 10 12  4  0  0  0  0
  7 15  1  0  0  0  0
 15 29  1  0  0  0  0
 16 17  1  0  0  0  0
 17 20  2  0  0  0  0
 17 24  2  0  0  0  0
 15 18  1  0  0  0  0
 18 19  1  0  0  0  0
 17 19  1  0  0  0  0
 19 34  1  0  0  0  0
 21 27  1  0  0  0  0
 21 30  1  0  0  0  0
 21 33  2  0  0  0  0
 18 22  1  0  0  0  0
 22 23  1  0  0  0  0
 23 35  1  0  0  0  0
 22 25  1  0  0  0  0
 25 28  1  0  0  0  0
 25 26  1  0  0  0  0
 28 31  1  0  0  0  0
 28 29  1  0  0  0  0
 31 32  1  0  0  0  0
 21 32  1  0  0  0  0
 26 36  1  0  0  0  0
 36 47  1  0  0  0  0
 36 38  1  0  0  0  0
 38 39  1  0  0  0  0
 39 51  1  0  0  0  0
 38 41  1  0  0  0  0
 41 42  1  0  0  0  0
 42 52  1  0  0  0  0
 41 44  1  0  0  0  0
 44 46  1  0  0  0  0
 44 45  1  0  0  0  0
 46 48  1  0  0  0  0
 46 47  1  0  0  0  0
 48 49  4  0  0  0  0
 48 50  4  0  0  0  0
 37 51  1  0  0  0  0
 40 51  1  0  0  0  0
 43 51  2  0  0  0  0
 45 53  1  0  0  0  0
 53 56  1  0  0  0  0
 53 67  1  0  0  0  0
 54 55  1  0  0  0  0
 55 58  2  0  0  0  0
 55 62  2  0  0  0  0
 56 57  1  0  0  0  0
 56 60  1  0  0  0  0
 55 57  1  0  0  0  0
 57 72  1  0  0  0  0
 59 65  1  0  0  0  0
 59 68  1  0  0  0  0
 59 71  2  0  0  0  0
 60 61  1  0  0  0  0
 60 63  1  0  0  0  0
 61 73  1  0  0  0  0
 63 64  1  0  0  0  0
 63 66  1  0  0  0  0
 64 74  1  0  0  0  0
 66 67  1  0  0  0  0
 66 69  1  0  0  0  0
 69 70  1  0  0  0  0
 59 70  1  0  0  0  0
 74 75  1  0  0  0  0
 74 82  1  0  0  0  0
 75 76  1  0  0  0  0
 75 77  1  0  0  0  0
 76 86  1  0  0  0  0
 77 78  1  0  0  0  0
 77 79  1  0  0  0  0
 78 87  1  0  0  0  0
 79 80  1  0  0  0  0
 79 81  1  0  0  0  0
 80 88  1  0  0  0  0
 81 82  1  0  0  0  0
 81 83  1  0  0  0  0
 83 84  4  0  0  0  0
 83 85  4  0  0  0  0
 88 89  1  0  0  0  0
 88 96  1  0  0  0  0
 89 90  1  0  0  0  0
 89 91  1  0  0  0  0
 90 99  1  0  0  0  0
 90106  1  0  0  0  0
 91 92  1  0  0  0  0
 91 93  1  0  0  0  0
 92107  1  0  0  0  0
 93 94  1  0  0  0  0
 93 95  1  0  0  0  0
 94108  1  0  0  0  0
 95 96  1  0  0  0  0
 95 97  1  0  0  0  0
 97 98  1  0  0  0  0
 98105  1  0  0  0  0
 99100  2  0  0  0  0
 99102  1  0  0  0  0
101105  1  0  0  0  0
103105  1  0  0  0  0
104105  2  0  0  0  0
M  END
$$$$
Run_1_Vina
  PyMOL2.5          3D                             0

108113  0  0  0  0  0  0  0  0999 V2000
    2.7940    7.1700   42.6760 C   0  0  0  0  0  0  0  0  0  0  0  0
    3.5500    7.9810   41.6830 C   0  0  0  0  0  0  0  0  0  0  0  0
    4.3890    7.1380   40.9800 O   0  0  0  0  0  0  0  0  0  0  0  0
    4.3630    9.0380   42.3470 C   0  0  0  0  0  0  0  0  0  0  0  0
    4.8420    9.8850   41.3670 O   0  0  0  0  0  0  0  0  0  0  0  0
    3.5610    9.8210   43.3340 C   0  0  0  0  0  0  0  0  0  0  0  0
    4.4200   10.5550   44.1370 O   0  0  0  0  0  0  0  0  0  0  0  0
    2.7610    8.8950   44.2140 C   0  0  0  0  0  0  0  0  0  0  0  0
    2.0160    8.0190   43.4350 O   0  0  0  0  0  0  0  0  0  0  0  0
    1.8340    9.6360   45.1290 C   0  0  0  0  0  0  0  0  0  0  0  0
    0.8870   10.3120   44.6490 O   0  0  0  0  0  0  0  0  0  0  0  0
    2.0070    9.5890   46.3770 O   0  0  0  0  0  0  0  0  0  0  0  0
    5.1600    7.6300   40.7220 H   0  0  0  0  0  0  0  0  0  0  0  0
    4.0950   10.2690   40.9220 H   0  0  0  0  0  0  0  0  0  0  0  0
    3.9380   11.8950   44.3880 C   0  0  0  0  0  0  0  0  0  0  0  0
    5.4080   14.6270   41.1410 O   0  0  0  0  0  0  0  0  0  0  0  0
    4.7050   13.3490   41.0950 S   0  0  0  0  0  0  0  0  0  0  0  0
    4.8850   12.8940   43.7210 C   0  0  0  0  0  0  0  0  0  0  0  0
    5.1770   12.4900   42.3580 N   0  0  0  0  0  0  0  0  0  0  0  0
    5.0790   12.5950   39.9020 O   0  0  0  0  0  0  0  0  0  0  0  0
    4.9830    9.7930   49.0080 S   0  0  0  0  0  0  0  0  0  0  0  0
    6.2220   12.9810   44.4590 C   0  0  0  0  0  0  0  0  0  0  0  0
    6.9580   14.0740   43.9640 O   0  0  0  0  0  0  0  0  0  0  0  0
    3.2610   13.5030   41.2410 O   0  0  0  0  0  0  0  0  0  0  0  0
    6.0800   13.0970   45.9730 C   0  0  0  0  0  0  0  0  0  0  0  0
    7.3650   12.8760   46.5400 O   0  0  0  0  0  0  0  0  0  0  0  0
    5.2780    8.8870   47.8990 O   0  0  0  0  0  0  0  0  0  0  0  0
    5.0680   12.0600   46.4590 C   0  0  0  0  0  0  0  0  0  0  0  0
    3.8310   12.1960   45.7650 O   0  0  0  0  0  0  0  0  0  0  0  0
    6.1990   10.3280   49.6070 O   0  5  0  0  0  0  0  0  0  0  0  0
    4.8250   12.1460   47.9630 C   0  0  0  0  0  0  0  0  0  0  0  0
    4.1620   10.9870   48.4190 O   0  0  0  0  0  0  0  0  0  0  0  0
    4.1500    9.1600   50.0220 O   0  0  0  0  0  0  0  0  0  0  0  0
    5.7020   11.6290   42.2000 H   0  0  0  0  0  0  0  0  0  0  0  0
    7.8570   13.8050   43.8120 H   0  0  0  0  0  0  0  0  0  0  0  0
    7.7450   11.4780   46.5770 C   0  0  0  0  0  0  0  0  0  0  0  0
    7.3880    8.0240   43.7900 O   0  0  0  0  0  0  0  0  0  0  0  0
    8.4410   11.1030   45.3040 C   0  0  0  0  0  0  0  0  0  0  0  0
    8.4000    9.7330   45.1170 O   0  0  0  0  0  0  0  0  0  0  0  0
    7.5460   10.2820   42.9930 O   0  5  0  0  0  0  0  0  0  0  0  0
    9.8640   11.6140   45.2500 C   0  0  0  0  0  0  0  0  0  0  0  0
    9.8180   12.9240   44.8130 O   0  0  0  0  0  0  0  0  0  0  0  0
    9.4720    8.8900   43.1420 O   0  0  0  0  0  0  0  0  0  0  0  0
   10.6060   11.5770   46.5570 C   0  0  0  0  0  0  0  0  0  0  0  0
   11.2870   10.3720   46.7480 O   0  0  0  0  0  0  0  0  0  0  0  0
    9.6730   11.8760   47.7000 C   0  0  0  0  0  0  0  0  0  0  0  0
    8.5310   11.1110   47.6440 O   0  0  0  0  0  0  0  0  0  0  0  0
   10.3610   11.5880   48.9970 C   0  0  0  0  0  0  0  0  0  0  0  0
   11.3460   12.2800   49.3620 O   0  0  0  0  0  0  0  0  0  0  0  0
    9.9570   10.6400   49.7230 O   0  0  0  0  0  0  0  0  0  0  0  0
    8.2050    9.2110   43.7520 S   0  0  0  0  0  0  0  0  0  0  0  0
   10.4310   13.4220   45.3410 H   0  0  0  0  0  0  0  0  0  0  0  0
   12.1200   10.0520   45.6040 C   0  0  0  0  0  0  0  0  0  0  0  0
   14.3430    6.2160   47.5290 O   0  0  0  0  0  0  0  0  0  0  0  0
   13.6070    6.5540   46.3240 S   0  0  0  0  0  0  0  0  0  0  0  0
   13.2710    9.1130   45.9770 C   0  0  0  0  0  0  0  0  0  0  0  0
   12.7830    7.8940   46.5980 N   0  0  0  0  0  0  0  0  0  0  0  0
   12.6510    5.5010   45.9970 O   0  0  0  0  0  0  0  0  0  0  0  0
   12.6800   14.3120   43.2450 S   0  0  0  0  0  0  0  0  0  0  0  0
   14.2780    9.7920   46.9010 C   0  0  0  0  0  0  0  0  0  0  0  0
   15.3750    8.9280   47.1230 O   0  0  0  0  0  0  0  0  0  0  0  0
   14.4860    6.8660   45.1990 O   0  0  0  0  0  0  0  0  0  0  0  0
   14.7570   11.1010   46.2920 C   0  0  0  0  0  0  0  0  0  0  0  0
   15.4980   11.7920   47.2870 O   0  0  0  0  0  0  0  0  0  0  0  0
   13.7920   13.6680   42.5580 O   0  0  0  0  0  0  0  0  0  0  0  0
   13.5300   11.9180   45.8860 C   0  0  0  0  0  0  0  0  0  0  0  0
   12.6870   11.2000   45.0040 O   0  0  0  0  0  0  0  0  0  0  0  0
   11.3790   13.8550   42.7780 O   0  5  0  0  0  0  0  0  0  0  0  0
   13.9110   13.2270   45.2050 C   0  0  0  0  0  0  0  0  0  0  0  0
   12.7580   13.9060   44.7590 O   0  0  0  0  0  0  0  0  0  0  0  0
   12.7650   15.7660   43.1860 O   0  0  0  0  0  0  0  0  0  0  0  0
   11.9490    7.8940   47.1850 H   0  0  0  0  0  0  0  0  0  0  0  0
   15.1300    8.2570   47.7500 H   0  0  0  0  0  0  0  0  0  0  0  0
   16.8910   11.9790   46.9570 C   0  0  0  0  0  0  0  0  0  0  0  0
   17.7560   11.2460   47.9370 C   0  0  0  0  0  0  0  0  0  0  0  0
   17.4680   11.6380   49.2360 O   0  0  0  0  0  0  0  0  0  0  0  0
   19.1960   11.5150   47.6770 C   0  0  0  0  0  0  0  0  0  0  0  0
   19.9350   10.6850   48.4990 O   0  0  0  0  0  0  0  0  0  0  0  0
   19.5530   11.2700   46.2490 C   0  0  0  0  0  0  0  0  0  0  0  0
   20.7840   11.8610   45.9660 O   0  0  0  0  0  0  0  0  0  0  0  0
   18.5190   11.8980   45.3400 C   0  0  0  0  0  0  0  0  0  0  0  0
   17.2210   11.5210   45.6910 O   0  0  0  0  0  0  0  0  0  0  0  0
   18.7620   11.6050   43.8900 C   0  0  0  0  0  0  0  0  0  0  0  0
   18.2410   10.5900   43.3640 O   0  0  0  0  0  0  0  0  0  0  0  0
   19.4980   12.3570   43.2000 O   0  0  0  0  0  0  0  0  0  0  0  0
   16.8240   11.0600   49.6280 H   0  0  0  0  0  0  0  0  0  0  0  0
   20.7720   10.5290   48.0760 H   0  0  0  0  0  0  0  0  0  0  0  0
   21.7650   11.7140   47.0180 C   0  0  0  0  0  0  0  0  0  0  0  0
   22.7320   12.8470   46.9260 C   0  0  0  0  0  0  0  0  0  0  0  0
   22.0140   14.0850   46.8980 N   0  0  0  0  0  0  0  0  0  0  0  0
   23.5030   12.7070   45.6600 C   0  0  0  0  0  0  0  0  0  0  0  0
   24.4040   13.7420   45.5320 O   0  0  0  0  0  0  0  0  0  0  0  0
   24.2160   11.4010   45.6840 C   0  0  0  0  0  0  0  0  0  0  0  0
   24.9210   11.2430   44.5130 O   0  0  0  0  0  0  0  0  0  0  0  0
   23.1840   10.3280   45.8090 C   0  0  0  0  0  0  0  0  0  0  0  0
   22.4690   10.5260   46.9720 O   0  0  0  0  0  0  0  0  0  0  0  0
   23.8050    8.9660   45.7930 C   0  0  0  0  0  0  0  0  0  0  0  0
   24.8020    8.8430   46.7420 O   0  0  0  0  0  0  0  0  0  0  0  0
   21.9900   14.9330   48.0470 C   0  0  0  0  0  0  0  0  0  0  0  0
   22.5830   14.6060   49.0660 O   0  0  0  0  0  0  0  0  0  0  0  0
   25.8680    7.0450   45.5650 O   0  0  0  0  0  0  0  0  0  0  0  0
   21.2330   16.2180   47.9910 C   0  0  0  0  0  0  0  0  0  0  0  0
   26.7140    7.8400   47.6520 O   0  5  0  0  0  0  0  0  0  0  0  0
   26.8970    9.1620   45.6560 O   0  0  0  0  0  0  0  0  0  0  0  0
   26.0910    8.2100   46.3820 S   0  0  0  0  0  0  0  0  0  0  0  0
   21.5160   14.3630   46.0520 H   0  0  0  0  0  0  0  0  0  0  0  0
   25.1380   13.6160   46.1210 H   0  0  0  0  0  0  0  0  0  0  0  0
   24.3190   11.2440   43.7790 H   0  0  0  0  0  0  0  0  0  0  0  0
  1  9  1  0  0  0  0
  1  2  1  0  0  0  0
  2  3  1  0  0  0  0
  3 13  1  0  0  0  0
  2  4  1  0  0  0  0
  4  5  1  0  0  0  0
  5 14  1  0  0  0  0
  4  6  1  0  0  0  0
  6  8  1  0  0  0  0
  6  7  1  0  0  0  0
  8 10  1  0  0  0  0
  8  9  1  0  0  0  0
 10 11  4  0  0  0  0
 10 12  4  0  0  0  0
  7 15  1  0  0  0  0
 15 29  1  0  0  0  0
 16 17  1  0  0  0  0
 17 20  2  0  0  0  0
 17 24  2  0  0  0  0
 15 18  1  0  0  0  0
 18 19  1  0  0  0  0
 17 19  1  0  0  0  0
 19 34  1  0  0  0  0
 21 27  1  0  0  0  0
 21 30  1  0  0  0  0
 21 33  2  0  0  0  0
 18 22  1  0  0  0  0
 22 23  1  0  0  0  0
 23 35  1  0  0  0  0
 22 25  1  0  0  0  0
 25 28  1  0  0  0  0
 25 26  1  0  0  0  0
 28 31  1  0  0  0  0
 28 29  1  0  0  0  0
 31 32  1  0  0  0  0
 21 32  1  0  0  0  0
 26 36  1  0  0  0  0
 36 47  1  0  0  0  0
 36 38  1  0  0  0  0
 38 39  1  0  0  0  0
 39 51  1  0  0  0  0
 38 41  1  0  0  0  0
 41 42  1  0  0  0  0
 42 52  1  0  0  0  0
 41 44  1  0  0  0  0
 44 46  1  0  0  0  0
 44 45  1  0  0  0  0
 46 48  1  0  0  0  0
 46 47  1  0  0  0  0
 48 49  4  0  0  0  0
 48 50  4  0  0  0  0
 37 51  1  0  0  0  0
 40 51  1  0  0  0  0
 43 51  2  0  0  0  0
 45 53  1  0  0  0  0
 53 56  1  0  0  0  0
 53 67  1  0  0  0  0
 54 55  1  0  0  0  0
 55 58  2  0  0  0  0
 55 62  2  0  0  0  0
 56 57  1  0  0  0  0
 56 60  1  0  0  0  0
 55 57  1  0  0  0  0
 57 72  1  0  0  0  0
 59 65  1  0  0  0  0
 59 68  1  0  0  0  0
 59 71  2  0  0  0  0
 60 61  1  0  0  0  0
 60 63  1  0  0  0  0
 61 73  1  0  0  0  0
 63 64  1  0  0  0  0
 63 66  1  0  0  0  0
 64 74  1  0  0  0  0
 66 67  1  0  0  0  0
 66 69  1  0  0  0  0
 69 70  1  0  0  0  0
 59 70  1  0  0  0  0
 74 75  1  0  0  0  0
 74 82  1  0  0  0  0
 75 76  1  0  0  0  0
 75 77  1  0  0  0  0
 76 86  1  0  0  0  0
 77 78  1  0  0  0  0
 77 79  1  0  0  0  0
 78 87  1  0  0  0  0
 79 80  1  0  0  0  0
 79 81  1  0  0  0  0
 80 88  1  0  0  0  0
 81 82  1  0  0  0  0
 81 83  1  0  0  0  0
 83 84  4  0  0  0  0
 83 85  4  0  0  0  0
 88 89  1  0  0  0  0
 88 96  1  0  0  0  0
 89 90  1  0  0  0  0
 89 91  1  0  0  0  0
 90 99  1  0  0  0  0
 90106  1  0  0  0  0
 91 92  1  0  0  0  0
 91 93  1  0  0  0  0
 92107  1  0  0  0  0
 93 94  1  0  0  0  0
 93 95  1  0  0  0  0
 94108  1  0  0  0  0
 95 96  1  0  0  0  0
 95 97  1  0  0  0  0
 97 98  1  0  0  0  0
 98105  1  0  0  0  0
 99100  2  0  0  0  0
 99102  1  0  0  0  0
101105  1  0  0  0  0
103105  1  0  0  0  0
104105  2  0  0  0  0
M  END
$$$$
Run_1_Vina
  PyMOL2.5          3D                             0

108113  0  0  0  0  0  0  0  0999 V2000
    0.6920   17.5340   52.9820 C   0  0  0  0  0  0  0  0  0  0  0  0
    1.8140   17.5590   53.9620 C   0  0  0  0  0  0  0  0  0  0  0  0
    2.0840   18.8750   54.2810 O   0  0  0  0  0  0  0  0  0  0  0  0
    3.0410   16.9290   53.4000 C   0  0  0  0  0  0  0  0  0  0  0  0
    3.9500   16.7790   54.4290 O   0  0  0  0  0  0  0  0  0  0  0  0
    2.7560   15.5980   52.7890 C   0  0  0  0  0  0  0  0  0  0  0  0
    3.8400   15.2120   52.0150 O   0  0  0  0  0  0  0  0  0  0  0  0
    1.5410   15.6760   51.9010 C   0  0  0  0  0  0  0  0  0  0  0  0
    0.4740   16.2280   52.5980 O   0  0  0  0  0  0  0  0  0  0  0  0
    1.1320   14.3340   51.3730 C   0  0  0  0  0  0  0  0  0  0  0  0
    0.8740   13.3980   52.1740 O   0  0  0  0  0  0  0  0  0  0  0  0
    1.0540   14.1410   50.1300 O   0  0  0  0  0  0  0  0  0  0  0  0
    2.0320   18.9710   55.2250 H   0  0  0  0  0  0  0  0  0  0  0  0
    4.6670   17.3830   54.2760 H   0  0  0  0  0  0  0  0  0  0  0  0
    4.6940   14.2590   52.6890 C   0  0  0  0  0  0  0  0  0  0  0  0
    6.8690   17.8070   54.2010 O   0  0  0  0  0  0  0  0  0  0  0  0
    7.4270   16.5750   53.6530 S   0  0  0  0  0  0  0  0  0  0  0  0
    6.1530   14.6000   52.3840 C   0  0  0  0  0  0  0  0  0  0  0  0
    6.3950   16.0190   52.5650 N   0  0  0  0  0  0  0  0  0  0  0  0
    7.5450   15.5540   54.6900 O   0  0  0  0  0  0  0  0  0  0  0  0
    3.0700    9.1810   51.6070 S   0  0  0  0  0  0  0  0  0  0  0  0
    6.5190   14.2640   50.9360 C   0  0  0  0  0  0  0  0  0  0  0  0
    7.9130   14.3630   50.7730 O   0  0  0  0  0  0  0  0  0  0  0  0
    8.6750   16.8020   52.9330 O   0  0  0  0  0  0  0  0  0  0  0  0
    6.0420   12.8870   50.4880 C   0  0  0  0  0  0  0  0  0  0  0  0
    6.1850   12.8260   49.0740 O   0  0  0  0  0  0  0  0  0  0  0  0
    2.6560    8.7950   52.9550 O   0  0  0  0  0  0  0  0  0  0  0  0
    4.5860   12.7010   50.9130 C   0  0  0  0  0  0  0  0  0  0  0  0
    4.4350   12.9210   52.3120 O   0  0  0  0  0  0  0  0  0  0  0  0
    1.9350    9.2690   50.6970 O   0  5  0  0  0  0  0  0  0  0  0  0
    4.0460   11.3210   50.5480 C   0  0  0  0  0  0  0  0  0  0  0  0
    3.7200   10.6000   51.7160 O   0  0  0  0  0  0  0  0  0  0  0  0
    4.0860    8.2850   51.0710 O   0  0  0  0  0  0  0  0  0  0  0  0
    5.8910   16.6850   51.9790 H   0  0  0  0  0  0  0  0  0  0  0  0
    8.1330   15.2350   50.4650 H   0  0  0  0  0  0  0  0  0  0  0  0
    6.6500   11.5390   48.5980 C   0  0  0  0  0  0  0  0  0  0  0  0
    5.2420    8.6910   47.9790 O   0  0  0  0  0  0  0  0  0  0  0  0
    6.5770   11.4910   47.1030 C   0  0  0  0  0  0  0  0  0  0  0  0
    6.5680   10.1790   46.6620 O   0  0  0  0  0  0  0  0  0  0  0  0
    4.2250   10.4050   46.6430 O   0  5  0  0  0  0  0  0  0  0  0  0
    7.6910   12.2740   46.4430 C   0  0  0  0  0  0  0  0  0  0  0  0
    7.2970   13.5970   46.3970 O   0  0  0  0  0  0  0  0  0  0  0  0
    5.2100    8.4830   45.6400 O   0  0  0  0  0  0  0  0  0  0  0  0
    9.0220   12.2010   47.1390 C   0  0  0  0  0  0  0  0  0  0  0  0
    9.8050   11.1390   46.6790 O   0  0  0  0  0  0  0  0  0  0  0  0
    8.8330   12.1480   48.6310 C   0  0  0  0  0  0  0  0  0  0  0  0
    7.9180   11.1890   48.9990 O   0  0  0  0  0  0  0  0  0  0  0  0
   10.1360   11.8220   49.2900 C   0  0  0  0  0  0  0  0  0  0  0  0
   11.0600   12.6750   49.3280 O   0  0  0  0  0  0  0  0  0  0  0  0
   10.3120   10.6840   49.8010 O   0  0  0  0  0  0  0  0  0  0  0  0
    5.3080    9.4170   46.7360 S   0  0  0  0  0  0  0  0  0  0  0  0
    6.7620   13.7090   45.6200 H   0  0  0  0  0  0  0  0  0  0  0  0
   10.3180   11.4020   45.3480 C   0  0  0  0  0  0  0  0  0  0  0  0
   10.5530    8.6660   42.3550 O   0  0  0  0  0  0  0  0  0  0  0  0
    9.5820    8.6060   43.4320 S   0  0  0  0  0  0  0  0  0  0  0  0
   11.1120   10.2150   44.7940 C   0  0  0  0  0  0  0  0  0  0  0  0
   10.3190    8.9980   44.7940 N   0  0  0  0  0  0  0  0  0  0  0  0
    9.0650    7.2500   43.5790 O   0  0  0  0  0  0  0  0  0  0  0  0
   14.6170   14.5350   47.9880 S   0  0  0  0  0  0  0  0  0  0  0  0
   12.4030    9.9860   45.5730 C   0  0  0  0  0  0  0  0  0  0  0  0
   13.1530    8.9580   44.9550 O   0  0  0  0  0  0  0  0  0  0  0  0
    8.5110    9.5890   43.2790 O   0  0  0  0  0  0  0  0  0  0  0  0
   13.2210   11.2670   45.6320 C   0  0  0  0  0  0  0  0  0  0  0  0
   14.2790   11.0580   46.5550 O   0  0  0  0  0  0  0  0  0  0  0  0
   14.5350   15.7860   48.7310 O   0  0  0  0  0  0  0  0  0  0  0  0
   12.3100   12.3940   46.1190 C   0  0  0  0  0  0  0  0  0  0  0  0
   11.1630   12.5350   45.3020 O   0  0  0  0  0  0  0  0  0  0  0  0
   15.0290   13.4080   48.8130 O   0  5  0  0  0  0  0  0  0  0  0  0
   13.0270   13.7380   46.1520 C   0  0  0  0  0  0  0  0  0  0  0  0
   13.1730   14.1880   47.4810 O   0  0  0  0  0  0  0  0  0  0  0  0
   15.4700   14.6480   46.8110 O   0  0  0  0  0  0  0  0  0  0  0  0
   10.2360    8.4180   45.6290 H   0  0  0  0  0  0  0  0  0  0  0  0
   12.5710    8.3920   44.4620 H   0  0  0  0  0  0  0  0  0  0  0  0
   15.5940   11.2580   45.9960 C   0  0  0  0  0  0  0  0  0  0  0  0
   16.3280    9.9540   45.9230 C   0  0  0  0  0  0  0  0  0  0  0  0
   16.3760    9.3460   47.1690 O   0  0  0  0  0  0  0  0  0  0  0  0
   17.7240   10.1570   45.4490 C   0  0  0  0  0  0  0  0  0  0  0  0
   18.2850    8.9100   45.2440 O   0  0  0  0  0  0  0  0  0  0  0  0
   17.7660   10.9500   44.1850 C   0  0  0  0  0  0  0  0  0  0  0  0
   19.0620   11.4180   43.9700 O   0  0  0  0  0  0  0  0  0  0  0  0
   16.8530   12.1500   44.2940 C   0  0  0  0  0  0  0  0  0  0  0  0
   15.5710   11.7920   44.7170 O   0  0  0  0  0  0  0  0  0  0  0  0
   16.7710   12.9390   43.0220 C   0  0  0  0  0  0  0  0  0  0  0  0
   17.5660   12.6890   42.0820 O   0  0  0  0  0  0  0  0  0  0  0  0
   15.9250   13.8620   42.8950 O   0  0  0  0  0  0  0  0  0  0  0  0
   16.3200    9.9940   47.8620 H   0  0  0  0  0  0  0  0  0  0  0  0
   18.1870    8.6950   44.3240 H   0  0  0  0  0  0  0  0  0  0  0  0
   19.6210   12.1440   45.0900 C   0  0  0  0  0  0  0  0  0  0  0  0
   20.5310   13.2030   44.5610 C   0  0  0  0  0  0  0  0  0  0  0  0
   19.8360   13.9830   43.5830 N   0  0  0  0  0  0  0  0  0  0  0  0
   21.6960   12.5410   43.9120 C   0  0  0  0  0  0  0  0  0  0  0  0
   22.5600   13.4860   43.4020 O   0  0  0  0  0  0  0  0  0  0  0  0
   22.3890   11.7030   44.9290 C   0  0  0  0  0  0  0  0  0  0  0  0
   23.4610   11.0670   44.3440 O   0  0  0  0  0  0  0  0  0  0  0  0
   21.4050   10.6960   45.4270 C   0  0  0  0  0  0  0  0  0  0  0  0
   20.3270   11.3560   45.9780 O   0  0  0  0  0  0  0  0  0  0  0  0
   22.0270    9.7690   46.4250 C   0  0  0  0  0  0  0  0  0  0  0  0
   22.6460    8.6940   45.8150 O   0  0  0  0  0  0  0  0  0  0  0  0
   19.4470   15.3270   43.8740 C   0  0  0  0  0  0  0  0  0  0  0  0
   19.7040   15.8190   44.9640 O   0  0  0  0  0  0  0  0  0  0  0  0
   24.2280    7.2690   46.9170 O   0  0  0  0  0  0  0  0  0  0  0  0
   18.7240   16.1190   42.8370 C   0  0  0  0  0  0  0  0  0  0  0  0
   24.5900    9.6220   46.7360 O   0  5  0  0  0  0  0  0  0  0  0  0
   24.7470    8.1920   44.8130 O   0  0  0  0  0  0  0  0  0  0  0  0
   24.0780    8.4240   46.0710 S   0  0  0  0  0  0  0  0  0  0  0  0
   19.6190   13.5780   42.6730 H   0  0  0  0  0  0  0  0  0  0  0  0
   22.4360   13.5750   42.4650 H   0  0  0  0  0  0  0  0  0  0  0  0
   23.7090   11.5290   43.5520 H   0  0  0  0  0  0  0  0  0  0  0  0
  1  9  1  0  0  0  0
  1  2  1  0  0  0  0
  2  3  1  0  0  0  0
  3 13  1  0  0  0  0
  2  4  1  0  0  0  0
  4  5  1  0  0  0  0
  5 14  1  0  0  0  0
  4  6  1  0  0  0  0
  6  8  1  0  0  0  0
  6  7  1  0  0  0  0
  8 10  1  0  0  0  0
  8  9  1  0  0  0  0
 10 11  4  0  0  0  0
 10 12  4  0  0  0  0
  7 15  1  0  0  0  0
 15 29  1  0  0  0  0
 16 17  1  0  0  0  0
 17 20  2  0  0  0  0
 17 24  2  0  0  0  0
 15 18  1  0  0  0  0
 18 19  1  0  0  0  0
 17 19  1  0  0  0  0
 19 34  1  0  0  0  0
 21 27  1  0  0  0  0
 21 30  1  0  0  0  0
 21 33  2  0  0  0  0
 18 22  1  0  0  0  0
 22 23  1  0  0  0  0
 23 35  1  0  0  0  0
 22 25  1  0  0  0  0
 25 28  1  0  0  0  0
 25 26  1  0  0  0  0
 28 31  1  0  0  0  0
 28 29  1  0  0  0  0
 31 32  1  0  0  0  0
 21 32  1  0  0  0  0
 26 36  1  0  0  0  0
 36 47  1  0  0  0  0
 36 38  1  0  0  0  0
 38 39  1  0  0  0  0
 39 51  1  0  0  0  0
 38 41  1  0  0  0  0
 41 42  1  0  0  0  0
 42 52  1  0  0  0  0
 41 44  1  0  0  0  0
 44 46  1  0  0  0  0
 44 45  1  0  0  0  0
 46 48  1  0  0  0  0
 46 47  1  0  0  0  0
 48 49  4  0  0  0  0
 48 50  4  0  0  0  0
 37 51  1  0  0  0  0
 40 51  1  0  0  0  0
 43 51  2  0  0  0  0
 45 53  1  0  0  0  0
 53 56  1  0  0  0  0
 53 67  1  0  0  0  0
 54 55  1  0  0  0  0
 55 58  2  0  0  0  0
 55 62  2  0  0  0  0
 56 57  1  0  0  0  0
 56 60  1  0  0  0  0
 55 57  1  0  0  0  0
 57 72  1  0  0  0  0
 59 65  1  0  0  0  0
 59 68  1  0  0  0  0
 59 71  2  0  0  0  0
 60 61  1  0  0  0  0
 60 63  1  0  0  0  0
 61 73  1  0  0  0  0
 63 64  1  0  0  0  0
 63 66  1  0  0  0  0
 64 74  1  0  0  0  0
 66 67  1  0  0  0  0
 66 69  1  0  0  0  0
 69 70  1  0  0  0  0
 59 70  1  0  0  0  0
 74 75  1  0  0  0  0
 74 82  1  0  0  0  0
 75 76  1  0  0  0  0
 75 77  1  0  0  0  0
 76 86  1  0  0  0  0
 77 78  1  0  0  0  0
 77 79  1  0  0  0  0
 78 87  1  0  0  0  0
 79 80  1  0  0  0  0
 79 81  1  0  0  0  0
 80 88  1  0  0  0  0
 81 82  1  0  0  0  0
 81 83  1  0  0  0  0
 83 84  4  0  0  0  0
 83 85  4  0  0  0  0
 88 89  1  0  0  0  0
 88 96  1  0  0  0  0
 89 90  1  0  0  0  0
 89 91  1  0  0  0  0
 90 99  1  0  0  0  0
 90106  1  0  0  0  0
 91 92  1  0  0  0  0
 91 93  1  0  0  0  0
 92107  1  0  0  0  0
 93 94  1  0  0  0  0
 93 95  1  0  0  0  0
 94108  1  0  0  0  0
 95 96  1  0  0  0  0
 95 97  1  0  0  0  0
 97 98  1  0  0  0  0
 98105  1  0  0  0  0
 99100  2  0  0  0  0
 99102  1  0  0  0  0
101105  1  0  0  0  0
103105  1  0  0  0  0
104105  2  0  0  0  0
M  END
$$$$
Run_1_Vina
  PyMOL2.5          3D                             0

108113  0  0  0  0  0  0  0  0999 V2000
   -0.8660    5.6060   43.9690 C   0  0  0  0  0  0  0  0  0  0  0  0
   -0.5570    5.8530   42.5330 C   0  0  0  0  0  0  0  0  0  0  0  0
   -0.3950    4.6320   41.9060 O   0  0  0  0  0  0  0  0  0  0  0  0
    0.6870    6.6550   42.3730 C   0  0  0  0  0  0  0  0  0  0  0  0
    0.7790    7.0380   41.0490 O   0  0  0  0  0  0  0  0  0  0  0  0
    0.6860    7.8670   43.2440 C   0  0  0  0  0  0  0  0  0  0  0  0
    1.9690    8.3900   43.2980 O   0  0  0  0  0  0  0  0  0  0  0  0
    0.2580    7.5090   44.6440 C   0  0  0  0  0  0  0  0  0  0  0  0
   -0.9480    6.8210   44.6150 O   0  0  0  0  0  0  0  0  0  0  0  0
    0.1070    8.7140   45.5220 C   0  0  0  0  0  0  0  0  0  0  0  0
   -0.8230    9.5340   45.3050 O   0  0  0  0  0  0  0  0  0  0  0  0
    0.9150    8.9110   46.4690 O   0  0  0  0  0  0  0  0  0  0  0  0
   -0.8130    4.6750   41.0550 H   0  0  0  0  0  0  0  0  0  0  0  0
   -0.0540    6.8510   40.6330 H   0  0  0  0  0  0  0  0  0  0  0  0
    1.9930    9.8250   43.1230 C   0  0  0  0  0  0  0  0  0  0  0  0
    1.6400   11.2360   39.5580 O   0  0  0  0  0  0  0  0  0  0  0  0
    2.2360    9.9200   39.3570 S   0  0  0  0  0  0  0  0  0  0  0  0
    2.8930   10.1640   41.9340 C   0  0  0  0  0  0  0  0  0  0  0  0
    2.5790    9.3180   40.7980 N   0  0  0  0  0  0  0  0  0  0  0  0
    3.4970   10.0270   38.6280 O   0  0  0  0  0  0  0  0  0  0  0  0
    4.3410    9.8620   48.4650 S   0  0  0  0  0  0  0  0  0  0  0  0
    4.3700    9.9400   42.2650 C   0  0  0  0  0  0  0  0  0  0  0  0
    5.1650   10.4890   41.2420 O   0  0  0  0  0  0  0  0  0  0  0  0
    1.3060    8.9760   38.7460 O   0  0  0  0  0  0  0  0  0  0  0  0
    4.7910   10.5170   43.6130 C   0  0  0  0  0  0  0  0  0  0  0  0
    6.0770    9.9940   43.9170 O   0  0  0  0  0  0  0  0  0  0  0  0
    3.0130    9.3590   48.8120 O   0  0  0  0  0  0  0  0  0  0  0  0
    3.7600   10.1190   44.6680 C   0  0  0  0  0  0  0  0  0  0  0  0
    2.4500   10.5140   44.2700 O   0  0  0  0  0  0  0  0  0  0  0  0
    5.3970    9.1030   49.1240 O   0  5  0  0  0  0  0  0  0  0  0  0
    4.0780   10.7050   46.0400 C   0  0  0  0  0  0  0  0  0  0  0  0
    4.5080    9.6880   46.9190 O   0  0  0  0  0  0  0  0  0  0  0  0
    4.4790   11.2830   48.7520 O   0  0  0  0  0  0  0  0  0  0  0  0
    2.5770    8.3050   40.9220 H   0  0  0  0  0  0  0  0  0  0  0  0
    4.6850   11.1870   40.8110 H   0  0  0  0  0  0  0  0  0  0  0  0
    7.1630   10.8550   43.4930 C   0  0  0  0  0  0  0  0  0  0  0  0
    6.3300   14.3940   44.7380 O   0  0  0  0  0  0  0  0  0  0  0  0
    7.4160   11.9070   44.5290 C   0  0  0  0  0  0  0  0  0  0  0  0
    8.0940   12.9780   43.9740 O   0  0  0  0  0  0  0  0  0  0  0  0
    8.3560   15.3140   43.8400 O   0  5  0  0  0  0  0  0  0  0  0  0
    8.1530   11.3670   45.7350 C   0  0  0  0  0  0  0  0  0  0  0  0
    7.2150   10.7970   46.5750 O   0  0  0  0  0  0  0  0  0  0  0  0
    6.7590   14.2460   42.4340 O   0  0  0  0  0  0  0  0  0  0  0  0
    9.2040   10.3360   45.4310 C   0  0  0  0  0  0  0  0  0  0  0  0
   10.4600   10.9060   45.2040 O   0  0  0  0  0  0  0  0  0  0  0  0
    8.7720    9.4660   44.2810 C   0  0  0  0  0  0  0  0  0  0  0  0
    8.3440   10.2120   43.2070 O   0  0  0  0  0  0  0  0  0  0  0  0
    9.9220    8.6210   43.8310 C   0  0  0  0  0  0  0  0  0  0  0  0
   10.3190    8.6710   42.6390 O   0  0  0  0  0  0  0  0  0  0  0  0
   10.4870    7.8470   44.6490 O   0  0  0  0  0  0  0  0  0  0  0  0
    7.3620   14.2370   43.7450 S   0  0  0  0  0  0  0  0  0  0  0  0
    6.7790   11.5040   47.0360 H   0  0  0  0  0  0  0  0  0  0  0  0
   11.0910   11.3000   46.4500 C   0  0  0  0  0  0  0  0  0  0  0  0
   10.6600   16.0590   46.2490 O   0  0  0  0  0  0  0  0  0  0  0  0
   10.5460   14.7350   46.8330 S   0  0  0  0  0  0  0  0  0  0  0  0
   11.9120   12.5840   46.2960 C   0  0  0  0  0  0  0  0  0  0  0  0
   11.1030   13.6730   45.7780 N   0  0  0  0  0  0  0  0  0  0  0  0
    9.1470   14.4120   47.0960 O   0  0  0  0  0  0  0  0  0  0  0  0
   14.1810    6.2960   46.2580 S   0  0  0  0  0  0  0  0  0  0  0  0
   13.1260   12.3740   45.3960 C   0  0  0  0  0  0  0  0  0  0  0  0
   13.9120   13.5500   45.3790 O   0  0  0  0  0  0  0  0  0  0  0  0
   11.3810   14.5710   48.0200 O   0  0  0  0  0  0  0  0  0  0  0  0
   13.9550   11.1990   45.8920 C   0  0  0  0  0  0  0  0  0  0  0  0
   14.9250   10.9080   44.8970 O   0  0  0  0  0  0  0  0  0  0  0  0
   14.5490    6.3970   47.6640 O   0  0  0  0  0  0  0  0  0  0  0  0
   13.0230   10.0020   46.0850 C   0  0  0  0  0  0  0  0  0  0  0  0
   11.9540   10.3040   46.9630 O   0  0  0  0  0  0  0  0  0  0  0  0
   13.1890    5.2630   46.0000 O   0  5  0  0  0  0  0  0  0  0  0  0
   13.7550    8.7870   46.6420 C   0  0  0  0  0  0  0  0  0  0  0  0
   13.5040    7.6510   45.8450 O   0  0  0  0  0  0  0  0  0  0  0  0
   15.3440    6.1180   45.3960 O   0  0  0  0  0  0  0  0  0  0  0  0
   10.8990   13.7570   44.7820 H   0  0  0  0  0  0  0  0  0  0  0  0
   13.6110   14.1430   46.0570 H   0  0  0  0  0  0  0  0  0  0  0  0
   16.2640   11.3210   45.2430 C   0  0  0  0  0  0  0  0  0  0  0  0
   17.2500   10.2650   44.8450 C   0  0  0  0  0  0  0  0  0  0  0  0
   16.9170    9.0430   45.4100 O   0  0  0  0  0  0  0  0  0  0  0  0
   18.6230   10.6270   45.2910 C   0  0  0  0  0  0  0  0  0  0  0  0
   19.4980    9.7040   44.7490 O   0  0  0  0  0  0  0  0  0  0  0  0
   18.9980   12.0040   44.8560 C   0  0  0  0  0  0  0  0  0  0  0  0
   20.1120   12.4350   45.5770 O   0  0  0  0  0  0  0  0  0  0  0  0
   17.8650   12.9650   45.1390 C   0  0  0  0  0  0  0  0  0  0  0  0
   16.6500   12.5010   44.6280 O   0  0  0  0  0  0  0  0  0  0  0  0
   18.1350   14.3510   44.6360 C   0  0  0  0  0  0  0  0  0  0  0  0
   18.3160   15.2860   45.4560 O   0  0  0  0  0  0  0  0  0  0  0  0
   18.1650   14.5900   43.4010 O   0  0  0  0  0  0  0  0  0  0  0  0
   16.9960    9.0760   46.3560 H   0  0  0  0  0  0  0  0  0  0  0  0
   20.3630   10.0980   44.7370 H   0  0  0  0  0  0  0  0  0  0  0  0
   20.5040   11.5430   46.6460 C   0  0  0  0  0  0  0  0  0  0  0  0
   20.9460   12.3660   47.8110 C   0  0  0  0  0  0  0  0  0  0  0  0
   19.9330   13.3260   48.1270 N   0  0  0  0  0  0  0  0  0  0  0  0
   22.1930   13.0860   47.4340 C   0  0  0  0  0  0  0  0  0  0  0  0
   22.6310   13.8660   48.4820 O   0  0  0  0  0  0  0  0  0  0  0  0
   23.2270   12.0790   47.0710 C   0  0  0  0  0  0  0  0  0  0  0  0
   24.3850   12.7250   46.7010 O   0  0  0  0  0  0  0  0  0  0  0  0
   22.6970   11.2820   45.9250 C   0  0  0  0  0  0  0  0  0  0  0  0
   21.5210   10.6700   46.3090 O   0  0  0  0  0  0  0  0  0  0  0  0
   23.6930   10.2680   45.4540 C   0  0  0  0  0  0  0  0  0  0  0  0
   23.4120    9.0050   45.9420 O   0  0  0  0  0  0  0  0  0  0  0  0
   18.9180   13.0180   49.0840 C   0  0  0  0  0  0  0  0  0  0  0  0
   18.9080   11.9290   49.6410 O   0  0  0  0  0  0  0  0  0  0  0  0
   25.3980    8.8030   47.2710 O   0  0  0  0  0  0  0  0  0  0  0  0
   17.8730   14.0370   49.3950 C   0  0  0  0  0  0  0  0  0  0  0  0
   25.2200    7.7520   45.1350 O   0  5  0  0  0  0  0  0  0  0  0  0
   23.9630    6.9530   47.0180 O   0  0  0  0  0  0  0  0  0  0  0  0
   24.5170    8.1150   46.3640 S   0  0  0  0  0  0  0  0  0  0  0  0
   19.9350   14.2360   47.6660 H   0  0  0  0  0  0  0  0  0  0  0  0
   22.2140   13.5950   49.2920 H   0  0  0  0  0  0  0  0  0  0  0  0
   24.6350   13.3390   47.3810 H   0  0  0  0  0  0  0  0  0  0  0  0
  1  9  1  0  0  0  0
  1  2  1  0  0  0  0
  2  3  1  0  0  0  0
  3 13  1  0  0  0  0
  2  4  1  0  0  0  0
  4  5  1  0  0  0  0
  5 14  1  0  0  0  0
  4  6  1  0  0  0  0
  6  8  1  0  0  0  0
  6  7  1  0  0  0  0
  8 10  1  0  0  0  0
  8  9  1  0  0  0  0
 10 11  4  0  0  0  0
 10 12  4  0  0  0  0
  7 15  1  0  0  0  0
 15 29  1  0  0  0  0
 16 17  1  0  0  0  0
 17 20  2  0  0  0  0
 17 24  2  0  0  0  0
 15 18  1  0  0  0  0
 18 19  1  0  0  0  0
 17 19  1  0  0  0  0
 19 34  1  0  0  0  0
 21 27  1  0  0  0  0
 21 30  1  0  0  0  0
 21 33  2  0  0  0  0
 18 22  1  0  0  0  0
 22 23  1  0  0  0  0
 23 35  1  0  0  0  0
 22 25  1  0  0  0  0
 25 28  1  0  0  0  0
 25 26  1  0  0  0  0
 28 31  1  0  0  0  0
 28 29  1  0  0  0  0
 31 32  1  0  0  0  0
 21 32  1  0  0  0  0
 26 36  1  0  0  0  0
 36 47  1  0  0  0  0
 36 38  1  0  0  0  0
 38 39  1  0  0  0  0
 39 51  1  0  0  0  0
 38 41  1  0  0  0  0
 41 42  1  0  0  0  0
 42 52  1  0  0  0  0
 41 44  1  0  0  0  0
 44 46  1  0  0  0  0
 44 45  1  0  0  0  0
 46 48  1  0  0  0  0
 46 47  1  0  0  0  0
 48 49  4  0  0  0  0
 48 50  4  0  0  0  0
 37 51  1  0  0  0  0
 40 51  1  0  0  0  0
 43 51  2  0  0  0  0
 45 53  1  0  0  0  0
 53 56  1  0  0  0  0
 53 67  1  0  0  0  0
 54 55  1  0  0  0  0
 55 58  2  0  0  0  0
 55 62  2  0  0  0  0
 56 57  1  0  0  0  0
 56 60  1  0  0  0  0
 55 57  1  0  0  0  0
 57 72  1  0  0  0  0
 59 65  1  0  0  0  0
 59 68  1  0  0  0  0
 59 71  2  0  0  0  0
 60 61  1  0  0  0  0
 60 63  1  0  0  0  0
 61 73  1  0  0  0  0
 63 64  1  0  0  0  0
 63 66  1  0  0  0  0
 64 74  1  0  0  0  0
 66 67  1  0  0  0  0
 66 69  1  0  0  0  0
 69 70  1  0  0  0  0
 59 70  1  0  0  0  0
 74 75  1  0  0  0  0
 74 82  1  0  0  0  0
 75 76  1  0  0  0  0
 75 77  1  0  0  0  0
 76 86  1  0  0  0  0
 77 78  1  0  0  0  0
 77 79  1  0  0  0  0
 78 87  1  0  0  0  0
 79 80  1  0  0  0  0
 79 81  1  0  0  0  0
 80 88  1  0  0  0  0
 81 82  1  0  0  0  0
 81 83  1  0  0  0  0
 83 84  4  0  0  0  0
 83 85  4  0  0  0  0
 88 89  1  0  0  0  0
 88 96  1  0  0  0  0
 89 90  1  0  0  0  0
 89 91  1  0  0  0  0
 90 99  1  0  0  0  0
 90106  1  0  0  0  0
 91 92  1  0  0  0  0
 91 93  1  0  0  0  0
 92107  1  0  0  0  0
 93 94  1  0  0  0  0
 93 95  1  0  0  0  0
 94108  1  0  0  0  0
 95 96  1  0  0  0  0
 95 97  1  0  0  0  0
 97 98  1  0  0  0  0
 98105  1  0  0  0  0
 99100  2  0  0  0  0
 99102  1  0  0  0  0
101105  1  0  0  0  0
103105  1  0  0  0  0
104105  2  0  0  0  0
M  END
$$$$
Run_1_Vina
  PyMOL2.5          3D                             0

108113  0  0  0  0  0  0  0  0999 V2000
    0.8090   17.5580   52.7850 C   0  0  0  0  0  0  0  0  0  0  0  0
    1.9040   17.5520   53.7940 C   0  0  0  0  0  0  0  0  0  0  0  0
    2.1690   18.8590   54.1560 O   0  0  0  0  0  0  0  0  0  0  0  0
    3.1450   16.9350   53.2470 C   0  0  0  0  0  0  0  0  0  0  0  0
    4.0270   16.7540   54.2950 O   0  0  0  0  0  0  0  0  0  0  0  0
    2.8730   15.6210   52.5920 C   0  0  0  0  0  0  0  0  0  0  0  0
    3.9760   15.2540   51.8360 O   0  0  0  0  0  0  0  0  0  0  0  0
    1.6810   15.7280   51.6760 C   0  0  0  0  0  0  0  0  0  0  0  0
    0.5980   16.2630   52.3590 O   0  0  0  0  0  0  0  0  0  0  0  0
    1.2830   14.4020   51.1000 C   0  0  0  0  0  0  0  0  0  0  0  0
    0.8800   13.4850   51.8620 O   0  0  0  0  0  0  0  0  0  0  0  0
    1.3590   14.2040   49.8580 O   0  0  0  0  0  0  0  0  0  0  0  0
    1.9880   19.4190   53.4110 H   0  0  0  0  0  0  0  0  0  0  0  0
    4.8920   17.0050   53.9950 H   0  0  0  0  0  0  0  0  0  0  0  0
    4.8360   14.3180   52.5250 C   0  0  0  0  0  0  0  0  0  0  0  0
    6.7410   17.9030   53.9010 O   0  0  0  0  0  0  0  0  0  0  0  0
    7.3930   16.6620   53.4980 S   0  0  0  0  0  0  0  0  0  0  0  0
    6.2900   14.6260   52.1670 C   0  0  0  0  0  0  0  0  0  0  0  0
    6.5550   16.0480   52.2830 N   0  0  0  0  0  0  0  0  0  0  0  0
    7.3570   15.6820   54.5790 O   0  0  0  0  0  0  0  0  0  0  0  0
    3.1140    9.2490   51.7430 S   0  0  0  0  0  0  0  0  0  0  0  0
    6.6110   14.2250   50.7250 C   0  0  0  0  0  0  0  0  0  0  0  0
    8.0020   14.2980   50.5200 O   0  0  0  0  0  0  0  0  0  0  0  0
    8.7380   16.8850   52.9770 O   0  0  0  0  0  0  0  0  0  0  0  0
    6.1040   12.8380   50.3470 C   0  0  0  0  0  0  0  0  0  0  0  0
    6.2070   12.7170   48.9340 O   0  0  0  0  0  0  0  0  0  0  0  0
    1.7170    9.1420   51.3260 O   0  0  0  0  0  0  0  0  0  0  0  0
    4.6580   12.6900   50.8190 C   0  0  0  0  0  0  0  0  0  0  0  0
    4.5490   12.9690   52.2120 O   0  0  0  0  0  0  0  0  0  0  0  0
    4.0040    8.5230   50.8450 O   0  5  0  0  0  0  0  0  0  0  0  0
    4.0910   11.3040   50.5270 C   0  0  0  0  0  0  0  0  0  0  0  0
    3.4930   10.7660   51.6860 O   0  0  0  0  0  0  0  0  0  0  0  0
    3.3080    8.8110   53.1190 O   0  0  0  0  0  0  0  0  0  0  0  0
    6.1950   16.6770   51.5640 H   0  0  0  0  0  0  0  0  0  0  0  0
    8.4450   13.7950   51.1930 H   0  0  0  0  0  0  0  0  0  0  0  0
    6.6330   11.4020   48.4990 C   0  0  0  0  0  0  0  0  0  0  0  0
    4.2600    9.5730   46.8960 O   0  0  0  0  0  0  0  0  0  0  0  0
    6.6350   11.3350   47.0020 C   0  0  0  0  0  0  0  0  0  0  0  0
    6.5850   10.0180   46.5780 O   0  0  0  0  0  0  0  0  0  0  0  0
    5.0870   10.4060   44.8030 O   0  5  0  0  0  0  0  0  0  0  0  0
    7.8170   12.0550   46.3910 C   0  0  0  0  0  0  0  0  0  0  0  0
    7.4900   13.3940   46.3080 O   0  0  0  0  0  0  0  0  0  0  0  0
    5.5110    8.1660   45.4920 O   0  0  0  0  0  0  0  0  0  0  0  0
    9.1060   11.9290   47.1560 C   0  0  0  0  0  0  0  0  0  0  0  0
    9.8590   10.8240   46.7510 O   0  0  0  0  0  0  0  0  0  0  0  0
    8.8390   11.9070   48.6370 C   0  0  0  0  0  0  0  0  0  0  0  0
    7.8600   10.9980   48.9690 O   0  0  0  0  0  0  0  0  0  0  0  0
   10.0890   11.5300   49.3670 C   0  0  0  0  0  0  0  0  0  0  0  0
   10.1870   10.4040   49.9210 O   0  0  0  0  0  0  0  0  0  0  0  0
   11.0450   12.3480   49.4360 O   0  0  0  0  0  0  0  0  0  0  0  0
    5.3450    9.5250   45.9500 S   0  0  0  0  0  0  0  0  0  0  0  0
    6.6560   13.4570   45.8590 H   0  0  0  0  0  0  0  0  0  0  0  0
   10.5590   11.0920   45.5080 C   0  0  0  0  0  0  0  0  0  0  0  0
   10.6270    8.7200   42.3550 O   0  0  0  0  0  0  0  0  0  0  0  0
    9.6380    8.5980   43.4110 S   0  0  0  0  0  0  0  0  0  0  0  0
   11.2910    9.8530   44.9830 C   0  0  0  0  0  0  0  0  0  0  0  0
   10.3850    8.7310   44.8160 N   0  0  0  0  0  0  0  0  0  0  0  0
    9.0030    7.2840   43.3650 O   0  0  0  0  0  0  0  0  0  0  0  0
   15.3480   14.2960   45.6990 S   0  0  0  0  0  0  0  0  0  0  0  0
   12.4450    9.4500   45.8970 C   0  0  0  0  0  0  0  0  0  0  0  0
   13.1580    8.3770   45.3120 O   0  0  0  0  0  0  0  0  0  0  0  0
    8.6590    9.6820   43.3920 O   0  0  0  0  0  0  0  0  0  0  0  0
   13.3740   10.6310   46.1280 C   0  0  0  0  0  0  0  0  0  0  0  0
   14.2820   10.2670   47.1580 O   0  0  0  0  0  0  0  0  0  0  0  0
   15.0400   15.5970   45.1180 O   0  0  0  0  0  0  0  0  0  0  0  0
   12.5290   11.8270   46.5700 C   0  0  0  0  0  0  0  0  0  0  0  0
   11.5130   12.1280   45.6310 O   0  0  0  0  0  0  0  0  0  0  0  0
   15.6550   14.3640   47.1200 O   0  5  0  0  0  0  0  0  0  0  0  0
   13.3680   13.0820   46.7690 C   0  0  0  0  0  0  0  0  0  0  0  0
   14.0590   13.4080   45.5830 O   0  0  0  0  0  0  0  0  0  0  0  0
   16.4100   13.6080   44.9760 O   0  0  0  0  0  0  0  0  0  0  0  0
   10.2320    8.0550   45.5650 H   0  0  0  0  0  0  0  0  0  0  0  0
   13.5300    7.8330   45.9970 H   0  0  0  0  0  0  0  0  0  0  0  0
   15.6240   10.7580   46.9580 C   0  0  0  0  0  0  0  0  0  0  0  0
   16.2780   11.0290   48.2790 C   0  0  0  0  0  0  0  0  0  0  0  0
   15.5100   11.8990   49.0380 O   0  0  0  0  0  0  0  0  0  0  0  0
   17.6230   11.6370   48.0900 C   0  0  0  0  0  0  0  0  0  0  0  0
   18.2330   11.7030   49.3290 O   0  0  0  0  0  0  0  0  0  0  0  0
   18.4610   10.8370   47.1490 C   0  0  0  0  0  0  0  0  0  0  0  0
   19.5470   11.6020   46.7240 O   0  0  0  0  0  0  0  0  0  0  0  0
   17.6550   10.4600   45.9260 C   0  0  0  0  0  0  0  0  0  0  0  0
   16.4360    9.8710   46.2690 O   0  0  0  0  0  0  0  0  0  0  0  0
   18.4060    9.5710   44.9820 C   0  0  0  0  0  0  0  0  0  0  0  0
   18.1960    9.6570   43.7460 O   0  0  0  0  0  0  0  0  0  0  0  0
   19.2310    8.7270   45.4180 O   0  0  0  0  0  0  0  0  0  0  0  0
   15.9930   12.6940   49.2310 H   0  0  0  0  0  0  0  0  0  0  0  0
   17.7550   11.1300   49.9180 H   0  0  0  0  0  0  0  0  0  0  0  0
   20.7460   11.4140   47.5120 C   0  0  0  0  0  0  0  0  0  0  0  0
   21.4180   12.7370   47.6750 C   0  0  0  0  0  0  0  0  0  0  0  0
   20.4760   13.6910   48.1730 N   0  0  0  0  0  0  0  0  0  0  0  0
   21.9020   13.1870   46.3410 C   0  0  0  0  0  0  0  0  0  0  0  0
   22.5230   14.4120   46.4450 O   0  0  0  0  0  0  0  0  0  0  0  0
   22.8520   12.1690   45.8160 C   0  0  0  0  0  0  0  0  0  0  0  0
   23.2980   12.5570   44.5720 O   0  0  0  0  0  0  0  0  0  0  0  0
   22.1120   10.8750   45.7130 C   0  0  0  0  0  0  0  0  0  0  0  0
   21.6480   10.5230   46.9630 O   0  0  0  0  0  0  0  0  0  0  0  0
   22.9770    9.7930   45.1450 C   0  0  0  0  0  0  0  0  0  0  0  0
   23.2540    8.8110   46.0770 O   0  0  0  0  0  0  0  0  0  0  0  0
   20.8930   14.7120   49.0810 C   0  0  0  0  0  0  0  0  0  0  0  0
   22.0600   14.7770   49.4400 O   0  0  0  0  0  0  0  0  0  0  0  0
   25.2620    8.1620   44.9380 O   0  0  0  0  0  0  0  0  0  0  0  0
   19.8900   15.6960   49.5860 C   0  0  0  0  0  0  0  0  0  0  0  0
   24.5060    7.0020   46.8830 O   0  5  0  0  0  0  0  0  0  0  0  0
   25.3950    9.2280   47.0340 O   0  0  0  0  0  0  0  0  0  0  0  0
   24.6360    8.3020   46.2260 S   0  0  0  0  0  0  0  0  0  0  0  0
   19.5010   13.6430   47.8780 H   0  0  0  0  0  0  0  0  0  0  0  0
   23.4500   14.3300   46.2540 H   0  0  0  0  0  0  0  0  0  0  0  0
   22.6090   13.0330   44.1240 H   0  0  0  0  0  0  0  0  0  0  0  0
  1  9  1  0  0  0  0
  1  2  1  0  0  0  0
  2  3  1  0  0  0  0
  3 13  1  0  0  0  0
  2  4  1  0  0  0  0
  4  5  1  0  0  0  0
  5 14  1  0  0  0  0
  4  6  1  0  0  0  0
  6  8  1  0  0  0  0
  6  7  1  0  0  0  0
  8 10  1  0  0  0  0
  8  9  1  0  0  0  0
 10 11  4  0  0  0  0
 10 12  4  0  0  0  0
  7 15  1  0  0  0  0
 15 29  1  0  0  0  0
 16 17  1  0  0  0  0
 17 20  2  0  0  0  0
 17 24  2  0  0  0  0
 15 18  1  0  0  0  0
 18 19  1  0  0  0  0
 17 19  1  0  0  0  0
 19 34  1  0  0  0  0
 21 27  1  0  0  0  0
 21 30  1  0  0  0  0
 21 33  2  0  0  0  0
 18 22  1  0  0  0  0
 22 23  1  0  0  0  0
 23 35  1  0  0  0  0
 22 25  1  0  0  0  0
 25 28  1  0  0  0  0
 25 26  1  0  0  0  0
 28 31  1  0  0  0  0
 28 29  1  0  0  0  0
 31 32  1  0  0  0  0
 21 32  1  0  0  0  0
 26 36  1  0  0  0  0
 36 47  1  0  0  0  0
 36 38  1  0  0  0  0
 38 39  1  0  0  0  0
 39 51  1  0  0  0  0
 38 41  1  0  0  0  0
 41 42  1  0  0  0  0
 42 52  1  0  0  0  0
 41 44  1  0  0  0  0
 44 46  1  0  0  0  0
 44 45  1  0  0  0  0
 46 48  1  0  0  0  0
 46 47  1  0  0  0  0
 48 49  4  0  0  0  0
 48 50  4  0  0  0  0
 37 51  1  0  0  0  0
 40 51  1  0  0  0  0
 43 51  2  0  0  0  0
 45 53  1  0  0  0  0
 53 56  1  0  0  0  0
 53 67  1  0  0  0  0
 54 55  1  0  0  0  0
 55 58  2  0  0  0  0
 55 62  2  0  0  0  0
 56 57  1  0  0  0  0
 56 60  1  0  0  0  0
 55 57  1  0  0  0  0
 57 72  1  0  0  0  0
 59 65  1  0  0  0  0
 59 68  1  0  0  0  0
 59 71  2  0  0  0  0
 60 61  1  0  0  0  0
 60 63  1  0  0  0  0
 61 73  1  0  0  0  0
 63 64  1  0  0  0  0
 63 66  1  0  0  0  0
 64 74  1  0  0  0  0
 66 67  1  0  0  0  0
 66 69  1  0  0  0  0
 69 70  1  0  0  0  0
 59 70  1  0  0  0  0
 74 75  1  0  0  0  0
 74 82  1  0  0  0  0
 75 76  1  0  0  0  0
 75 77  1  0  0  0  0
 76 86  1  0  0  0  0
 77 78  1  0  0  0  0
 77 79  1  0  0  0  0
 78 87  1  0  0  0  0
 79 80  1  0  0  0  0
 79 81  1  0  0  0  0
 80 88  1  0  0  0  0
 81 82  1  0  0  0  0
 81 83  1  0  0  0  0
 83 84  4  0  0  0  0
 83 85  4  0  0  0  0
 88 89  1  0  0  0  0
 88 96  1  0  0  0  0
 89 90  1  0  0  0  0
 89 91  1  0  0  0  0
 90 99  1  0  0  0  0
 90106  1  0  0  0  0
 91 92  1  0  0  0  0
 91 93  1  0  0  0  0
 92107  1  0  0  0  0
 93 94  1  0  0  0  0
 93 95  1  0  0  0  0
 94108  1  0  0  0  0
 95 96  1  0  0  0  0
 95 97  1  0  0  0  0
 97 98  1  0  0  0  0
 98105  1  0  0  0  0
 99100  2  0  0  0  0
 99102  1  0  0  0  0
101105  1  0  0  0  0
103105  1  0  0  0  0
104105  2  0  0  0  0
M  END
$$$$
Run_1_Vina
  PyMOL2.5          3D                             0

108113  0  0  0  0  0  0  0  0999 V2000
    0.6750    8.8000   43.1310 C   0  0  0  0  0  0  0  0  0  0  0  0
    0.8750    8.8670   44.6060 C   0  0  0  0  0  0  0  0  0  0  0  0
   -0.2400    9.4540   45.1700 O   0  0  0  0  0  0  0  0  0  0  0  0
    2.0810    9.6670   44.9570 C   0  0  0  0  0  0  0  0  0  0  0  0
    2.3310    9.4900   46.3040 O   0  0  0  0  0  0  0  0  0  0  0  0
    3.2780    9.2490   44.1680 C   0  0  0  0  0  0  0  0  0  0  0  0
    4.2650   10.2140   44.2950 O   0  0  0  0  0  0  0  0  0  0  0  0
    2.9250    9.1170   42.7090 C   0  0  0  0  0  0  0  0  0  0  0  0
    1.8200    8.2900   42.5560 O   0  0  0  0  0  0  0  0  0  0  0  0
    4.0580    8.5650   41.8960 C   0  0  0  0  0  0  0  0  0  0  0  0
    4.3280    7.3380   41.9510 O   0  0  0  0  0  0  0  0  0  0  0  0
    4.7430    9.3310   41.1660 O   0  0  0  0  0  0  0  0  0  0  0  0
    0.0450   10.0210   45.8770 H   0  0  0  0  0  0  0  0  0  0  0  0
    1.9600   10.2300   46.7700 H   0  0  0  0  0  0  0  0  0  0  0  0
    3.7250   11.5390   44.5090 C   0  0  0  0  0  0  0  0  0  0  0  0
    3.1560   13.3380   41.1880 O   0  0  0  0  0  0  0  0  0  0  0  0
    4.5810   13.0290   41.1630 S   0  0  0  0  0  0  0  0  0  0  0  0
    4.6130   12.5560   43.7920 C   0  0  0  0  0  0  0  0  0  0  0  0
    4.9020   12.1200   42.4390 N   0  0  0  0  0  0  0  0  0  0  0  0
    5.3780   14.2450   41.2950 O   0  0  0  0  0  0  0  0  0  0  0  0
    3.9000    9.9220   49.4570 S   0  0  0  0  0  0  0  0  0  0  0  0
    5.9560   12.7310   44.5040 C   0  0  0  0  0  0  0  0  0  0  0  0
    6.6320   13.8390   43.9590 O   0  0  0  0  0  0  0  0  0  0  0  0
    4.9560   12.2270   40.0030 O   0  0  0  0  0  0  0  0  0  0  0  0
    5.8320   12.8920   46.0150 C   0  0  0  0  0  0  0  0  0  0  0  0
    7.1360   12.7510   46.5670 O   0  0  0  0  0  0  0  0  0  0  0  0
    5.1740    9.3300   49.0540 O   0  0  0  0  0  0  0  0  0  0  0  0
    4.8780   11.8270   46.5540 C   0  0  0  0  0  0  0  0  0  0  0  0
    3.6250   11.8820   45.8770 O   0  0  0  0  0  0  0  0  0  0  0  0
    3.9590   10.4650   50.8090 O   0  5  0  0  0  0  0  0  0  0  0  0
    4.6550   11.9530   48.0570 C   0  0  0  0  0  0  0  0  0  0  0  0
    3.6100   11.1010   48.4710 O   0  0  0  0  0  0  0  0  0  0  0  0
    2.7970    8.9790   49.3340 O   0  0  0  0  0  0  0  0  0  0  0  0
    5.3240   11.2020   42.2960 H   0  0  0  0  0  0  0  0  0  0  0  0
    6.0420   14.3160   43.3870 H   0  0  0  0  0  0  0  0  0  0  0  0
    7.5820   11.3740   46.6430 C   0  0  0  0  0  0  0  0  0  0  0  0
    6.8340    8.0330   44.1150 O   0  0  0  0  0  0  0  0  0  0  0  0
    8.2380   10.9780   45.3560 C   0  0  0  0  0  0  0  0  0  0  0  0
    8.2540    9.6000   45.2270 O   0  0  0  0  0  0  0  0  0  0  0  0
    7.4230   10.1190   43.0860 O   0  5  0  0  0  0  0  0  0  0  0  0
    9.6320   11.5490   45.2170 C   0  0  0  0  0  0  0  0  0  0  0  0
    9.5060   12.8360   44.7300 O   0  0  0  0  0  0  0  0  0  0  0  0
    9.0170    8.3650   43.3150 O   0  0  0  0  0  0  0  0  0  0  0  0
   10.4310   11.6010   46.4890 C   0  0  0  0  0  0  0  0  0  0  0  0
   11.1750   10.4370   46.6980 O   0  0  0  0  0  0  0  0  0  0  0  0
    9.5360   11.9060   47.6600 C   0  0  0  0  0  0  0  0  0  0  0  0
    8.4290   11.0890   47.6870 O   0  0  0  0  0  0  0  0  0  0  0  0
   10.2920   11.7050   48.9360 C   0  0  0  0  0  0  0  0  0  0  0  0
   10.0110   10.7440   49.6970 O   0  0  0  0  0  0  0  0  0  0  0  0
   11.2090   12.5100   49.2530 O   0  0  0  0  0  0  0  0  0  0  0  0
    7.8800    9.0070   43.9300 S   0  0  0  0  0  0  0  0  0  0  0  0
    8.8260   13.2670   45.2340 H   0  0  0  0  0  0  0  0  0  0  0  0
   11.9850   10.1170   45.5380 C   0  0  0  0  0  0  0  0  0  0  0  0
   12.6170    5.5460   45.9650 O   0  0  0  0  0  0  0  0  0  0  0  0
   13.5250    6.6300   46.2950 S   0  0  0  0  0  0  0  0  0  0  0  0
   13.1410    9.1730   45.8880 C   0  0  0  0  0  0  0  0  0  0  0  0
   12.6610    7.9550   46.5160 N   0  0  0  0  0  0  0  0  0  0  0  0
   14.4480    6.8770   45.1920 O   0  0  0  0  0  0  0  0  0  0  0  0
   12.1740   14.8400   43.8630 S   0  0  0  0  0  0  0  0  0  0  0  0
   14.1670    9.8490   46.7930 C   0  0  0  0  0  0  0  0  0  0  0  0
   15.2660    8.9810   46.9930 O   0  0  0  0  0  0  0  0  0  0  0  0
   14.2240    6.4120   47.5580 O   0  0  0  0  0  0  0  0  0  0  0  0
   14.6380   11.1560   46.1760 C   0  0  0  0  0  0  0  0  0  0  0  0
   15.4000   11.8430   47.1570 O   0  0  0  0  0  0  0  0  0  0  0  0
   10.8130   15.2950   44.1110 O   0  0  0  0  0  0  0  0  0  0  0  0
   13.4060   11.9780   45.7950 C   0  0  0  0  0  0  0  0  0  0  0  0
   12.5450   11.2630   44.9290 O   0  0  0  0  0  0  0  0  0  0  0  0
   13.0890   15.9250   43.5390 O   0  5  0  0  0  0  0  0  0  0  0  0
   13.7780   13.2870   45.1090 C   0  0  0  0  0  0  0  0  0  0  0  0
   12.7150   14.2090   45.1950 O   0  0  0  0  0  0  0  0  0  0  0  0
   12.2310   13.8000   42.8420 O   0  0  0  0  0  0  0  0  0  0  0  0
   11.8080    7.9460   47.0760 H   0  0  0  0  0  0  0  0  0  0  0  0
   16.0450    9.4920   47.1760 H   0  0  0  0  0  0  0  0  0  0  0  0
   16.7970   11.9870   46.8220 C   0  0  0  0  0  0  0  0  0  0  0  0
   17.5560   12.5330   47.9930 C   0  0  0  0  0  0  0  0  0  0  0  0
   16.9970   13.7250   48.4300 O   0  0  0  0  0  0  0  0  0  0  0  0
   18.9770   12.7880   47.6310 C   0  0  0  0  0  0  0  0  0  0  0  0
   19.6520   13.1250   48.7890 O   0  0  0  0  0  0  0  0  0  0  0  0
   19.6080   11.5920   47.0010 C   0  0  0  0  0  0  0  0  0  0  0  0
   20.7900   11.9680   46.3630 O   0  0  0  0  0  0  0  0  0  0  0  0
   18.6840   11.0070   45.9550 C   0  0  0  0  0  0  0  0  0  0  0  0
   17.3990   10.7930   46.4580 O   0  0  0  0  0  0  0  0  0  0  0  0
   19.2140    9.7430   45.3490 C   0  0  0  0  0  0  0  0  0  0  0  0
   18.7210    9.3130   44.2760 O   0  0  0  0  0  0  0  0  0  0  0  0
   20.1340    9.0980   45.9150 O   0  0  0  0  0  0  0  0  0  0  0  0
   17.5690   14.4570   48.2330 H   0  0  0  0  0  0  0  0  0  0  0  0
   20.1060   12.3480   49.0960 H   0  0  0  0  0  0  0  0  0  0  0  0
   21.9830   11.7380   47.1480 C   0  0  0  0  0  0  0  0  0  0  0  0
   22.8710   12.9310   47.0210 C   0  0  0  0  0  0  0  0  0  0  0  0
   22.1260   14.1130   47.3320 N   0  0  0  0  0  0  0  0  0  0  0  0
   23.3470   13.0160   45.6130 C   0  0  0  0  0  0  0  0  0  0  0  0
   24.1660   14.1130   45.4510 O   0  0  0  0  0  0  0  0  0  0  0  0
   24.0870   11.7660   45.2900 C   0  0  0  0  0  0  0  0  0  0  0  0
   24.5220   11.8170   43.9850 O   0  0  0  0  0  0  0  0  0  0  0  0
   23.1420   10.6240   45.4710 C   0  0  0  0  0  0  0  0  0  0  0  0
   22.6960   10.6140   46.7760 O   0  0  0  0  0  0  0  0  0  0  0  0
   23.7850    9.3190   45.1200 C   0  0  0  0  0  0  0  0  0  0  0  0
   25.0090    9.1640   45.7430 O   0  0  0  0  0  0  0  0  0  0  0  0
   22.5280   14.9580   48.4110 C   0  0  0  0  0  0  0  0  0  0  0  0
   23.5130   14.6760   49.0790 O   0  0  0  0  0  0  0  0  0  0  0  0
   26.1470    8.1830   47.6130 O   0  0  0  0  0  0  0  0  0  0  0  0
   21.7340   16.1850   48.7130 C   0  0  0  0  0  0  0  0  0  0  0  0
   26.0170    7.0620   45.5090 O   0  5  0  0  0  0  0  0  0  0  0  0
   24.0790    7.3050   46.9050 O   0  0  0  0  0  0  0  0  0  0  0  0
   25.3150    7.9110   46.4690 S   0  0  0  0  0  0  0  0  0  0  0  0
   21.3040   14.3540   46.7790 H   0  0  0  0  0  0  0  0  0  0  0  0
   23.6920   14.9110   45.6510 H   0  0  0  0  0  0  0  0  0  0  0  0
   25.4710   11.7950   43.9670 H   0  0  0  0  0  0  0  0  0  0  0  0
  1  9  1  0  0  0  0
  1  2  1  0  0  0  0
  2  3  1  0  0  0  0
  3 13  1  0  0  0  0
  2  4  1  0  0  0  0
  4  5  1  0  0  0  0
  5 14  1  0  0  0  0
  4  6  1  0  0  0  0
  6  8  1  0  0  0  0
  6  7  1  0  0  0  0
  8 10  1  0  0  0  0
  8  9  1  0  0  0  0
 10 11  4  0  0  0  0
 10 12  4  0  0  0  0
  7 15  1  0  0  0  0
 15 29  1  0  0  0  0
 16 17  1  0  0  0  0
 17 20  2  0  0  0  0
 17 24  2  0  0  0  0
 15 18  1  0  0  0  0
 18 19  1  0  0  0  0
 17 19  1  0  0  0  0
 19 34  1  0  0  0  0
 21 27  1  0  0  0  0
 21 30  1  0  0  0  0
 21 33  2  0  0  0  0
 18 22  1  0  0  0  0
 22 23  1  0  0  0  0
 23 35  1  0  0  0  0
 22 25  1  0  0  0  0
 25 28  1  0  0  0  0
 25 26  1  0  0  0  0
 28 31  1  0  0  0  0
 28 29  1  0  0  0  0
 31 32  1  0  0  0  0
 21 32  1  0  0  0  0
 26 36  1  0  0  0  0
 36 47  1  0  0  0  0
 36 38  1  0  0  0  0
 38 39  1  0  0  0  0
 39 51  1  0  0  0  0
 38 41  1  0  0  0  0
 41 42  1  0  0  0  0
 42 52  1  0  0  0  0
 41 44  1  0  0  0  0
 44 46  1  0  0  0  0
 44 45  1  0  0  0  0
 46 48  1  0  0  0  0
 46 47  1  0  0  0  0
 48 49  4  0  0  0  0
 48 50  4  0  0  0  0
 37 51  1  0  0  0  0
 40 51  1  0  0  0  0
 43 51  2  0  0  0  0
 45 53  1  0  0  0  0
 53 56  1  0  0  0  0
 53 67  1  0  0  0  0
 54 55  1  0  0  0  0
 55 58  2  0  0  0  0
 55 62  2  0  0  0  0
 56 57  1  0  0  0  0
 56 60  1  0  0  0  0
 55 57  1  0  0  0  0
 57 72  1  0  0  0  0
 59 65  1  0  0  0  0
 59 68  1  0  0  0  0
 59 71  2  0  0  0  0
 60 61  1  0  0  0  0
 60 63  1  0  0  0  0
 61 73  1  0  0  0  0
 63 64  1  0  0  0  0
 63 66  1  0  0  0  0
 64 74  1  0  0  0  0
 66 67  1  0  0  0  0
 66 69  1  0  0  0  0
 69 70  1  0  0  0  0
 59 70  1  0  0  0  0
 74 75  1  0  0  0  0
 74 82  1  0  0  0  0
 75 76  1  0  0  0  0
 75 77  1  0  0  0  0
 76 86  1  0  0  0  0
 77 78  1  0  0  0  0
 77 79  1  0  0  0  0
 78 87  1  0  0  0  0
 79 80  1  0  0  0  0
 79 81  1  0  0  0  0
 80 88  1  0  0  0  0
 81 82  1  0  0  0  0
 81 83  1  0  0  0  0
 83 84  4  0  0  0  0
 83 85  4  0  0  0  0
 88 89  1  0  0  0  0
 88 96  1  0  0  0  0
 89 90  1  0  0  0  0
 89 91  1  0  0  0  0
 90 99  1  0  0  0  0
 90106  1  0  0  0  0
 91 92  1  0  0  0  0
 91 93  1  0  0  0  0
 92107  1  0  0  0  0
 93 94  1  0  0  0  0
 93 95  1  0  0  0  0
 94108  1  0  0  0  0
 95 96  1  0  0  0  0
 95 97  1  0  0  0  0
 97 98  1  0  0  0  0
 98105  1  0  0  0  0
 99100  2  0  0  0  0
 99102  1  0  0  0  0
101105  1  0  0  0  0
103105  1  0  0  0  0
104105  2  0  0  0  0
M  END
$$$$
Run_1_Vina
  PyMOL2.5          3D                             0

108113  0  0  0  0  0  0  0  0999 V2000
   19.8680   17.7580   43.3940 C   0  0  0  0  0  0  0  0  0  0  0  0
   21.2190   17.1390   43.4870 C   0  0  0  0  0  0  0  0  0  0  0  0
   21.6500   16.8390   42.2090 O   0  0  0  0  0  0  0  0  0  0  0  0
   21.1920   15.8910   44.3000 C   0  0  0  0  0  0  0  0  0  0  0  0
   22.4980   15.5080   44.5350 O   0  0  0  0  0  0  0  0  0  0  0  0
   20.4880   16.0870   45.6010 C   0  0  0  0  0  0  0  0  0  0  0  0
   20.2140   14.8490   46.1610 O   0  0  0  0  0  0  0  0  0  0  0  0
   19.1850   16.8140   45.3900 C   0  0  0  0  0  0  0  0  0  0  0  0
   19.3990   17.9830   44.6710 O   0  0  0  0  0  0  0  0  0  0  0  0
   18.5070   17.1580   46.6820 C   0  0  0  0  0  0  0  0  0  0  0  0
   19.1120   17.8490   47.5420 O   0  0  0  0  0  0  0  0  0  0  0  0
   17.3360   16.7500   46.9090 O   0  0  0  0  0  0  0  0  0  0  0  0
   20.9760   16.3270   41.7780 H   0  0  0  0  0  0  0  0  0  0  0  0
   23.0580   16.2560   44.3560 H   0  0  0  0  0  0  0  0  0  0  0  0
   21.0300   14.5690   47.3210 C   0  0  0  0  0  0  0  0  0  0  0  0
   24.0730   12.2360   44.8520 O   0  0  0  0  0  0  0  0  0  0  0  0
   23.1010   11.6570   45.7740 S   0  0  0  0  0  0  0  0  0  0  0  0
   21.4420   13.0970   47.2940 C   0  0  0  0  0  0  0  0  0  0  0  0
   21.9300   12.7260   45.9780 N   0  0  0  0  0  0  0  0  0  0  0  0
   23.7030   11.4280   47.0850 O   0  0  0  0  0  0  0  0  0  0  0  0
   17.9590   13.7060   52.2550 S   0  0  0  0  0  0  0  0  0  0  0  0
   20.2590   12.1770   47.6080 C   0  0  0  0  0  0  0  0  0  0  0  0
   20.7310   10.8660   47.8110 O   0  0  0  0  0  0  0  0  0  0  0  0
   22.4570   10.4670   45.2280 O   0  0  0  0  0  0  0  0  0  0  0  0
   19.4390   12.6240   48.8130 C   0  0  0  0  0  0  0  0  0  0  0  0
   18.2350   11.8670   48.8120 O   0  0  0  0  0  0  0  0  0  0  0  0
   17.3370   14.9230   52.7740 O   0  0  0  0  0  0  0  0  0  0  0  0
   19.1600   14.1220   48.6980 C   0  0  0  0  0  0  0  0  0  0  0  0
   20.3740   14.8520   48.5410 O   0  0  0  0  0  0  0  0  0  0  0  0
   16.9700   12.7850   51.7080 O   0  5  0  0  0  0  0  0  0  0  0  0
   18.3870   14.6620   49.8970 C   0  0  0  0  0  0  0  0  0  0  0  0
   18.9160   14.1390   51.0960 O   0  0  0  0  0  0  0  0  0  0  0  0
   18.7770   13.0400   53.2590 O   0  0  0  0  0  0  0  0  0  0  0  0
   21.5130   13.1630   45.1560 H   0  0  0  0  0  0  0  0  0  0  0  0
   21.5520   10.7520   47.3460 H   0  0  0  0  0  0  0  0  0  0  0  0
   17.5670   11.8520   47.5260 C   0  0  0  0  0  0  0  0  0  0  0  0
   18.8640   11.5490   44.5530 O   0  0  0  0  0  0  0  0  0  0  0  0
   17.3350   10.4380   47.0880 C   0  0  0  0  0  0  0  0  0  0  0  0
   17.1350   10.3840   45.7190 O   0  0  0  0  0  0  0  0  0  0  0  0
   19.2740    9.4120   45.5640 O   0  5  0  0  0  0  0  0  0  0  0  0
   16.1900    9.7820   47.8280 C   0  0  0  0  0  0  0  0  0  0  0  0
   16.6870    9.3060   49.0250 O   0  0  0  0  0  0  0  0  0  0  0  0
   17.9470    9.6090   43.5970 O   0  0  0  0  0  0  0  0  0  0  0  0
   15.0240   10.6830   48.1250 C   0  0  0  0  0  0  0  0  0  0  0  0
   14.0700   10.6730   47.1040 O   0  0  0  0  0  0  0  0  0  0  0  0
   15.5000   12.0780   48.4280 C   0  0  0  0  0  0  0  0  0  0  0  0
   16.3770   12.5400   47.4750 O   0  0  0  0  0  0  0  0  0  0  0  0
   14.3300   13.0100   48.4710 C   0  0  0  0  0  0  0  0  0  0  0  0
   13.5010   12.9470   49.4160 O   0  0  0  0  0  0  0  0  0  0  0  0
   14.1680   13.8550   47.5510 O   0  0  0  0  0  0  0  0  0  0  0  0
   18.3100   10.2490   44.8380 S   0  0  0  0  0  0  0  0  0  0  0  0
   17.1560    8.5010   48.8390 H   0  0  0  0  0  0  0  0  0  0  0  0
   12.9790    9.7680   47.4120 C   0  0  0  0  0  0  0  0  0  0  0  0
   15.0400    6.1450   45.4670 O   0  0  0  0  0  0  0  0  0  0  0  0
   13.9470    6.7360   46.2160 S   0  0  0  0  0  0  0  0  0  0  0  0
   12.5590    8.9400   46.1940 C   0  0  0  0  0  0  0  0  0  0  0  0
   13.6800    8.2020   45.6410 N   0  0  0  0  0  0  0  0  0  0  0  0
   14.3050    6.8670   47.6250 O   0  0  0  0  0  0  0  0  0  0  0  0
    8.4260   11.5050   49.3430 S   0  0  0  0  0  0  0  0  0  0  0  0
   11.9300    9.8090   45.1090 C   0  0  0  0  0  0  0  0  0  0  0  0
   11.4560    8.9870   44.0600 O   0  0  0  0  0  0  0  0  0  0  0  0
   12.6880    6.0180   46.0340 O   0  0  0  0  0  0  0  0  0  0  0  0
   10.7890   10.6320   45.6860 C   0  0  0  0  0  0  0  0  0  0  0  0
   10.4030   11.5800   44.7010 O   0  0  0  0  0  0  0  0  0  0  0  0
    9.2350   10.7850   50.3170 O   0  0  0  0  0  0  0  0  0  0  0  0
   11.2980   11.3490   46.9360 C   0  0  0  0  0  0  0  0  0  0  0  0
   11.8280   10.4410   47.8840 O   0  0  0  0  0  0  0  0  0  0  0  0
    8.3850   12.9400   49.5850 O   0  5  0  0  0  0  0  0  0  0  0  0
   10.2030   12.1550   47.6230 C   0  0  0  0  0  0  0  0  0  0  0  0
    9.1050   11.3280   47.9380 O   0  0  0  0  0  0  0  0  0  0  0  0
    7.0770   10.9630   49.2390 O   0  0  0  0  0  0  0  0  0  0  0  0
   14.2740    8.6030   44.9140 H   0  0  0  0  0  0  0  0  0  0  0  0
   10.7740    8.4140   44.3890 H   0  0  0  0  0  0  0  0  0  0  0  0
    9.0140   11.4970   44.3180 C   0  0  0  0  0  0  0  0  0  0  0  0
    8.8550   11.8590   42.8720 C   0  0  0  0  0  0  0  0  0  0  0  0
    9.3950   13.1110   42.6160 O   0  0  0  0  0  0  0  0  0  0  0  0
    7.4170   11.8830   42.4880 C   0  0  0  0  0  0  0  0  0  0  0  0
    7.3500   12.0550   41.1180 O   0  0  0  0  0  0  0  0  0  0  0  0
    6.7210   10.6230   42.8800 C   0  0  0  0  0  0  0  0  0  0  0  0
    5.3410   10.8170   42.8350 O   0  0  0  0  0  0  0  0  0  0  0  0
    7.0890   10.2460   44.2980 C   0  0  0  0  0  0  0  0  0  0  0  0
    8.4720   10.2340   44.4910 O   0  0  0  0  0  0  0  0  0  0  0  0
    6.5010    8.9340   44.7250 C   0  0  0  0  0  0  0  0  0  0  0  0
    6.0590    8.8010   45.8930 O   0  0  0  0  0  0  0  0  0  0  0  0
    6.4640    7.9600   43.9290 O   0  0  0  0  0  0  0  0  0  0  0  0
    9.4280   13.6330   43.4090 H   0  0  0  0  0  0  0  0  0  0  0  0
    6.9310   11.2850   40.7500 H   0  0  0  0  0  0  0  0  0  0  0  0
    4.7170   10.3430   41.6190 C   0  0  0  0  0  0  0  0  0  0  0  0
    3.6230   11.2890   41.2480 C   0  0  0  0  0  0  0  0  0  0  0  0
    4.1380   12.6240   41.2170 N   0  0  0  0  0  0  0  0  0  0  0  0
    2.5570   11.2060   42.2840 C   0  0  0  0  0  0  0  0  0  0  0  0
    1.5290   12.0730   41.9830 O   0  0  0  0  0  0  0  0  0  0  0  0
    2.0560    9.8060   42.3340 C   0  0  0  0  0  0  0  0  0  0  0  0
    1.0800    9.7030   43.3000 O   0  0  0  0  0  0  0  0  0  0  0  0
    3.2120    8.9260   42.6780 C   0  0  0  0  0  0  0  0  0  0  0  0
    4.1890    9.0700   41.7150 O   0  0  0  0  0  0  0  0  0  0  0  0
    2.7940    7.4940   42.7990 C   0  0  0  0  0  0  0  0  0  0  0  0
    2.1200    7.2510   43.9820 O   0  0  0  0  0  0  0  0  0  0  0  0
    3.7130   13.5400   40.2070 C   0  0  0  0  0  0  0  0  0  0  0  0
    2.9050   13.1880   39.3590 O   0  0  0  0  0  0  0  0  0  0  0  0
    1.2130    5.1700   43.2090 O   0  0  0  0  0  0  0  0  0  0  0  0
    4.2650   14.9260   40.1980 C   0  0  0  0  0  0  0  0  0  0  0  0
   -0.1470    7.1220   43.4060 O   0  5  0  0  0  0  0  0  0  0  0  0
    0.6550    5.9690   45.3530 O   0  0  0  0  0  0  0  0  0  0  0  0
    0.9470    6.3490   43.9920 S   0  0  0  0  0  0  0  0  0  0  0  0
    4.8120   12.9230   41.9220 H   0  0  0  0  0  0  0  0  0  0  0  0
    0.7070   11.7410   42.3250 H   0  0  0  0  0  0  0  0  0  0  0  0
    0.9770   10.5410   43.7350 H   0  0  0  0  0  0  0  0  0  0  0  0
  1  9  1  0  0  0  0
  1  2  1  0  0  0  0
  2  3  1  0  0  0  0
  3 13  1  0  0  0  0
  2  4  1  0  0  0  0
  4  5  1  0  0  0  0
  5 14  1  0  0  0  0
  4  6  1  0  0  0  0
  6  8  1  0  0  0  0
  6  7  1  0  0  0  0
  8 10  1  0  0  0  0
  8  9  1  0  0  0  0
 10 11  4  0  0  0  0
 10 12  4  0  0  0  0
  7 15  1  0  0  0  0
 15 29  1  0  0  0  0
 16 17  1  0  0  0  0
 17 20  2  0  0  0  0
 17 24  2  0  0  0  0
 15 18  1  0  0  0  0
 18 19  1  0  0  0  0
 17 19  1  0  0  0  0
 19 34  1  0  0  0  0
 21 27  1  0  0  0  0
 21 30  1  0  0  0  0
 21 33  2  0  0  0  0
 18 22  1  0  0  0  0
 22 23  1  0  0  0  0
 23 35  1  0  0  0  0
 22 25  1  0  0  0  0
 25 28  1  0  0  0  0
 25 26  1  0  0  0  0
 28 31  1  0  0  0  0
 28 29  1  0  0  0  0
 31 32  1  0  0  0  0
 21 32  1  0  0  0  0
 26 36  1  0  0  0  0
 36 47  1  0  0  0  0
 36 38  1  0  0  0  0
 38 39  1  0  0  0  0
 39 51  1  0  0  0  0
 38 41  1  0  0  0  0
 41 42  1  0  0  0  0
 42 52  1  0  0  0  0
 41 44  1  0  0  0  0
 44 46  1  0  0  0  0
 44 45  1  0  0  0  0
 46 48  1  0  0  0  0
 46 47  1  0  0  0  0
 48 49  4  0  0  0  0
 48 50  4  0  0  0  0
 37 51  1  0  0  0  0
 40 51  1  0  0  0  0
 43 51  2  0  0  0  0
 45 53  1  0  0  0  0
 53 56  1  0  0  0  0
 53 67  1  0  0  0  0
 54 55  1  0  0  0  0
 55 58  2  0  0  0  0
 55 62  2  0  0  0  0
 56 57  1  0  0  0  0
 56 60  1  0  0  0  0
 55 57  1  0  0  0  0
 57 72  1  0  0  0  0
 59 65  1  0  0  0  0
 59 68  1  0  0  0  0
 59 71  2  0  0  0  0
 60 61  1  0  0  0  0
 60 63  1  0  0  0  0
 61 73  1  0  0  0  0
 63 64  1  0  0  0  0
 63 66  1  0  0  0  0
 64 74  1  0  0  0  0
 66 67  1  0  0  0  0
 66 69  1  0  0  0  0
 69 70  1  0  0  0  0
 59 70  1  0  0  0  0
 74 75  1  0  0  0  0
 74 82  1  0  0  0  0
 75 76  1  0  0  0  0
 75 77  1  0  0  0  0
 76 86  1  0  0  0  0
 77 78  1  0  0  0  0
 77 79  1  0  0  0  0
 78 87  1  0  0  0  0
 79 80  1  0  0  0  0
 79 81  1  0  0  0  0
 80 88  1  0  0  0  0
 81 82  1  0  0  0  0
 81 83  1  0  0  0  0
 83 84  4  0  0  0  0
 83 85  4  0  0  0  0
 88 89  1  0  0  0  0
 88 96  1  0  0  0  0
 89 90  1  0  0  0  0
 89 91  1  0  0  0  0
 90 99  1  0  0  0  0
 90106  1  0  0  0  0
 91 92  1  0  0  0  0
 91 93  1  0  0  0  0
 92107  1  0  0  0  0
 93 94  1  0  0  0  0
 93 95  1  0  0  0  0
 94108  1  0  0  0  0
 95 96  1  0  0  0  0
 95 97  1  0  0  0  0
 97 98  1  0  0  0  0
 98105  1  0  0  0  0
 99100  2  0  0  0  0
 99102  1  0  0  0  0
101105  1  0  0  0  0
103105  1  0  0  0  0
104105  2  0  0  0  0
M  END
$$$$
Run_1_Vina
  PyMOL2.5          3D                             0

108113  0  0  0  0  0  0  0  0999 V2000
   20.7780   10.1080   45.7690 C   0  0  0  0  0  0  0  0  0  0  0  0
   20.4160   10.5380   47.1480 C   0  0  0  0  0  0  0  0  0  0  0  0
   20.8400    9.5660   48.0320 O   0  0  0  0  0  0  0  0  0  0  0  0
   18.9450   10.7250   47.2930 C   0  0  0  0  0  0  0  0  0  0  0  0
   18.7130   11.3400   48.5080 O   0  0  0  0  0  0  0  0  0  0  0  0
   18.3770   11.5600   46.1940 C   0  0  0  0  0  0  0  0  0  0  0  0
   16.9960   11.4350   46.1960 O   0  0  0  0  0  0  0  0  0  0  0  0
   18.8960   11.0940   44.8580 C   0  0  0  0  0  0  0  0  0  0  0  0
   20.2830   11.0360   44.8760 O   0  0  0  0  0  0  0  0  0  0  0  0
   18.4640   11.9880   43.7340 C   0  0  0  0  0  0  0  0  0  0  0  0
   18.1450   11.4880   42.6240 O   0  0  0  0  0  0  0  0  0  0  0  0
   18.4280   13.2370   43.8990 O   0  0  0  0  0  0  0  0  0  0  0  0
   20.1900    9.4820   48.7200 H   0  0  0  0  0  0  0  0  0  0  0  0
   18.3010   12.1790   48.3360 H   0  0  0  0  0  0  0  0  0  0  0  0
   16.3360   12.5740   46.7930 C   0  0  0  0  0  0  0  0  0  0  0  0
   14.4440   11.4910   50.6280 O   0  0  0  0  0  0  0  0  0  0  0  0
   15.8160   11.1590   50.2580 S   0  0  0  0  0  0  0  0  0  0  0  0
   15.3020   12.0740   47.8020 C   0  0  0  0  0  0  0  0  0  0  0  0
   15.8770   11.0580   48.6640 N   0  0  0  0  0  0  0  0  0  0  0  0
   16.1930    9.8490   50.7830 O   0  0  0  0  0  0  0  0  0  0  0  0
   15.6440   14.5700   41.9470 S   0  0  0  0  0  0  0  0  0  0  0  0
   14.0960   11.4390   47.1040 C   0  0  0  0  0  0  0  0  0  0  0  0
   13.0750   11.2180   48.0480 O   0  0  0  0  0  0  0  0  0  0  0  0
   16.7600   12.2110   50.6230 O   0  0  0  0  0  0  0  0  0  0  0  0
   13.5570   12.2650   45.9410 C   0  0  0  0  0  0  0  0  0  0  0  0
   12.6510   11.4410   45.2180 O   0  0  0  0  0  0  0  0  0  0  0  0
   16.0800   15.5810   42.9080 O   0  0  0  0  0  0  0  0  0  0  0  0
   14.7260   12.7160   45.0660 C   0  0  0  0  0  0  0  0  0  0  0  0
   15.7010   13.4070   45.8430 O   0  0  0  0  0  0  0  0  0  0  0  0
   16.7510   14.0860   41.1310 O   0  5  0  0  0  0  0  0  0  0  0  0
   14.2750   13.5980   43.9060 C   0  0  0  0  0  0  0  0  0  0  0  0
   15.0820   13.3650   42.7730 O   0  0  0  0  0  0  0  0  0  0  0  0
   14.5590   15.0520   41.1020 O   0  0  0  0  0  0  0  0  0  0  0  0
   16.3360   10.2520   48.2380 H   0  0  0  0  0  0  0  0  0  0  0  0
   13.2350   11.7540   48.8160 H   0  0  0  0  0  0  0  0  0  0  0  0
   11.6330   10.8350   46.0520 C   0  0  0  0  0  0  0  0  0  0  0  0
   10.6750   11.2800   49.6250 O   0  0  0  0  0  0  0  0  0  0  0  0
   10.5210   11.8100   46.2910 C   0  0  0  0  0  0  0  0  0  0  0  0
    9.7950   11.4480   47.4120 O   0  0  0  0  0  0  0  0  0  0  0  0
   10.9210   13.2940   48.3440 O   0  5  0  0  0  0  0  0  0  0  0  0
    9.6170   11.9630   45.0870 C   0  0  0  0  0  0  0  0  0  0  0  0
   10.2070   12.8790   44.2380 O   0  0  0  0  0  0  0  0  0  0  0  0
    8.8100   12.6540   49.2390 O   0  0  0  0  0  0  0  0  0  0  0  0
    9.3620   10.6980   44.3150 C   0  0  0  0  0  0  0  0  0  0  0  0
    8.2420   10.0060   44.7830 O   0  0  0  0  0  0  0  0  0  0  0  0
   10.5900    9.8290   44.3090 C   0  0  0  0  0  0  0  0  0  0  0  0
   11.1060    9.6590   45.5730 O   0  0  0  0  0  0  0  0  0  0  0  0
   10.2470    8.4790   43.7620 C   0  0  0  0  0  0  0  0  0  0  0  0
   10.1280    7.4920   44.5330 O   0  0  0  0  0  0  0  0  0  0  0  0
   10.0880    8.3280   42.5210 O   0  0  0  0  0  0  0  0  0  0  0  0
   10.0450   12.1630   48.6770 S   0  0  0  0  0  0  0  0  0  0  0  0
    9.5110   13.3720   43.8210 H   0  0  0  0  0  0  0  0  0  0  0  0
    7.1010   10.8900   44.9300 C   0  0  0  0  0  0  0  0  0  0  0  0
    3.7440    9.6390   47.4410 O   0  0  0  0  0  0  0  0  0  0  0  0
    5.1430    9.7580   47.8120 S   0  0  0  0  0  0  0  0  0  0  0  0
    5.8330   10.1290   45.3280 C   0  0  0  0  0  0  0  0  0  0  0  0
    6.0330    9.3630   46.5460 N   0  0  0  0  0  0  0  0  0  0  0  0
    5.4650    8.8300   48.8910 O   0  0  0  0  0  0  0  0  0  0  0  0
    4.9340   13.7170   41.4130 S   0  0  0  0  0  0  0  0  0  0  0  0
    5.3550    9.2040   44.2130 C   0  0  0  0  0  0  0  0  0  0  0  0
    4.1240    8.6140   44.5820 O   0  0  0  0  0  0  0  0  0  0  0  0
    5.5230   11.1310   48.1350 O   0  0  0  0  0  0  0  0  0  0  0  0
    5.1950    9.9800   42.9140 C   0  0  0  0  0  0  0  0  0  0  0  0
    4.9800    9.0360   41.8750 O   0  0  0  0  0  0  0  0  0  0  0  0
    4.0380   13.5360   42.5470 O   0  0  0  0  0  0  0  0  0  0  0  0
    6.4850   10.7600   42.6600 C   0  0  0  0  0  0  0  0  0  0  0  0
    6.8100   11.6070   43.7460 O   0  0  0  0  0  0  0  0  0  0  0  0
    5.2880   15.1100   41.1810 O   0  5  0  0  0  0  0  0  0  0  0  0
    6.3980   11.6210   41.4060 C   0  0  0  0  0  0  0  0  0  0  0  0
    6.2800   12.9840   41.7500 O   0  0  0  0  0  0  0  0  0  0  0  0
    4.4090   13.1120   40.1950 O   0  0  0  0  0  0  0  0  0  0  0  0
    6.7130    8.6040   46.5910 H   0  0  0  0  0  0  0  0  0  0  0  0
    4.2860    7.8660   45.1450 H   0  0  0  0  0  0  0  0  0  0  0  0
    3.7900    9.2810   41.0960 C   0  0  0  0  0  0  0  0  0  0  0  0
    2.9450    8.0450   41.0410 C   0  0  0  0  0  0  0  0  0  0  0  0
    3.6760    6.9700   40.5560 O   0  0  0  0  0  0  0  0  0  0  0  0
    1.7670    8.2470   40.1530 C   0  0  0  0  0  0  0  0  0  0  0  0
    0.9490    7.1400   40.2810 O   0  0  0  0  0  0  0  0  0  0  0  0
    1.0140    9.4840   40.5120 C   0  0  0  0  0  0  0  0  0  0  0  0
    0.1560    9.8290   39.4680 O   0  0  0  0  0  0  0  0  0  0  0  0
    1.9730   10.6350   40.7220 C   0  0  0  0  0  0  0  0  0  0  0  0
    3.0010   10.3000   41.6060 O   0  0  0  0  0  0  0  0  0  0  0  0
    1.2900   11.8880   41.1820 C   0  0  0  0  0  0  0  0  0  0  0  0
    0.8910   11.9790   42.3700 O   0  0  0  0  0  0  0  0  0  0  0  0
    1.0970   12.8410   40.3840 O   0  0  0  0  0  0  0  0  0  0  0  0
    3.2320    6.5650   39.8200 H   0  0  0  0  0  0  0  0  0  0  0  0
    1.0650    6.7940   41.1580 H   0  0  0  0  0  0  0  0  0  0  0  0
   -1.1260    9.1620   39.5120 C   0  0  0  0  0  0  0  0  0  0  0  0
   -2.1820   10.1370   39.1100 C   0  0  0  0  0  0  0  0  0  0  0  0
   -1.8240   10.7390   37.8620 N   0  0  0  0  0  0  0  0  0  0  0  0
   -2.2650   11.1980   40.1520 C   0  0  0  0  0  0  0  0  0  0  0  0
   -3.2250   12.1270   39.8140 O   0  0  0  0  0  0  0  0  0  0  0  0
   -2.6010   10.5560   41.4520 C   0  0  0  0  0  0  0  0  0  0  0  0
   -2.6640   11.5180   42.4340 O   0  0  0  0  0  0  0  0  0  0  0  0
   -1.5160    9.5770   41.7630 C   0  0  0  0  0  0  0  0  0  0  0  0
   -1.4510    8.6430   40.7510 O   0  0  0  0  0  0  0  0  0  0  0  0
   -1.7420    8.9110   43.0850 C   0  0  0  0  0  0  0  0  0  0  0  0
   -0.7960    9.2860   44.0200 O   0  0  0  0  0  0  0  0  0  0  0  0
   -2.5890   10.4740   36.6850 C   0  0  0  0  0  0  0  0  0  0  0  0
   -3.5560    9.7270   36.7360 O   0  0  0  0  0  0  0  0  0  0  0  0
    0.3290    7.8850   45.6080 O   0  0  0  0  0  0  0  0  0  0  0  0
   -2.1940   11.1150   35.3970 C   0  0  0  0  0  0  0  0  0  0  0  0
    1.5450    9.2820   44.1010 O   0  5  0  0  0  0  0  0  0  0  0  0
    0.3770    7.3360   43.3180 O   0  0  0  0  0  0  0  0  0  0  0  0
    0.3770    8.4190   44.2720 S   0  0  0  0  0  0  0  0  0  0  0  0
   -1.0180   11.3620   37.8130 H   0  0  0  0  0  0  0  0  0  0  0  0
   -3.4670   12.0340   38.9000 H   0  0  0  0  0  0  0  0  0  0  0  0
   -1.7920   11.6840   42.7700 H   0  0  0  0  0  0  0  0  0  0  0  0
  1  9  1  0  0  0  0
  1  2  1  0  0  0  0
  2  3  1  0  0  0  0
  3 13  1  0  0  0  0
  2  4  1  0  0  0  0
  4  5  1  0  0  0  0
  5 14  1  0  0  0  0
  4  6  1  0  0  0  0
  6  8  1  0  0  0  0
  6  7  1  0  0  0  0
  8 10  1  0  0  0  0
  8  9  1  0  0  0  0
 10 11  4  0  0  0  0
 10 12  4  0  0  0  0
  7 15  1  0  0  0  0
 15 29  1  0  0  0  0
 16 17  1  0  0  0  0
 17 20  2  0  0  0  0
 17 24  2  0  0  0  0
 15 18  1  0  0  0  0
 18 19  1  0  0  0  0
 17 19  1  0  0  0  0
 19 34  1  0  0  0  0
 21 27  1  0  0  0  0
 21 30  1  0  0  0  0
 21 33  2  0  0  0  0
 18 22  1  0  0  0  0
 22 23  1  0  0  0  0
 23 35  1  0  0  0  0
 22 25  1  0  0  0  0
 25 28  1  0  0  0  0
 25 26  1  0  0  0  0
 28 31  1  0  0  0  0
 28 29  1  0  0  0  0
 31 32  1  0  0  0  0
 21 32  1  0  0  0  0
 26 36  1  0  0  0  0
 36 47  1  0  0  0  0
 36 38  1  0  0  0  0
 38 39  1  0  0  0  0
 39 51  1  0  0  0  0
 38 41  1  0  0  0  0
 41 42  1  0  0  0  0
 42 52  1  0  0  0  0
 41 44  1  0  0  0  0
 44 46  1  0  0  0  0
 44 45  1  0  0  0  0
 46 48  1  0  0  0  0
 46 47  1  0  0  0  0
 48 49  4  0  0  0  0
 48 50  4  0  0  0  0
 37 51  1  0  0  0  0
 40 51  1  0  0  0  0
 43 51  2  0  0  0  0
 45 53  1  0  0  0  0
 53 56  1  0  0  0  0
 53 67  1  0  0  0  0
 54 55  1  0  0  0  0
 55 58  2  0  0  0  0
 55 62  2  0  0  0  0
 56 57  1  0  0  0  0
 56 60  1  0  0  0  0
 55 57  1  0  0  0  0
 57 72  1  0  0  0  0
 59 65  1  0  0  0  0
 59 68  1  0  0  0  0
 59 71  2  0  0  0  0
 60 61  1  0  0  0  0
 60 63  1  0  0  0  0
 61 73  1  0  0  0  0
 63 64  1  0  0  0  0
 63 66  1  0  0  0  0
 64 74  1  0  0  0  0
 66 67  1  0  0  0  0
 66 69  1  0  0  0  0
 69 70  1  0  0  0  0
 59 70  1  0  0  0  0
 74 75  1  0  0  0  0
 74 82  1  0  0  0  0
 75 76  1  0  0  0  0
 75 77  1  0  0  0  0
 76 86  1  0  0  0  0
 77 78  1  0  0  0  0
 77 79  1  0  0  0  0
 78 87  1  0  0  0  0
 79 80  1  0  0  0  0
 79 81  1  0  0  0  0
 80 88  1  0  0  0  0
 81 82  1  0  0  0  0
 81 83  1  0  0  0  0
 83 84  4  0  0  0  0
 83 85  4  0  0  0  0
 88 89  1  0  0  0  0
 88 96  1  0  0  0  0
 89 90  1  0  0  0  0
 89 91  1  0  0  0  0
 90 99  1  0  0  0  0
 90106  1  0  0  0  0
 91 92  1  0  0  0  0
 91 93  1  0  0  0  0
 92107  1  0  0  0  0
 93 94  1  0  0  0  0
 93 95  1  0  0  0  0
 94108  1  0  0  0  0
 95 96  1  0  0  0  0
 95 97  1  0  0  0  0
 97 98  1  0  0  0  0
 98105  1  0  0  0  0
 99100  2  0  0  0  0
 99102  1  0  0  0  0
101105  1  0  0  0  0
103105  1  0  0  0  0
104105  2  0  0  0  0
M  END
$$$$
Run_1_Vina
  PyMOL2.5          3D                             0

108113  0  0  0  0  0  0  0  0999 V2000
    0.2640   14.0960   53.7610 C   0  0  0  0  0  0  0  0  0  0  0  0
    0.0860   13.8710   52.3000 C   0  0  0  0  0  0  0  0  0  0  0  0
   -0.4240   12.6010   52.1140 O   0  0  0  0  0  0  0  0  0  0  0  0
    1.3770   13.9930   51.5680 C   0  0  0  0  0  0  0  0  0  0  0  0
    1.1000   14.0060   50.2150 O   0  0  0  0  0  0  0  0  0  0  0  0
    2.1140   15.2370   51.9380 C   0  0  0  0  0  0  0  0  0  0  0  0
    3.4210   15.1430   51.4860 O   0  0  0  0  0  0  0  0  0  0  0  0
    2.1370   15.4090   53.4350 C   0  0  0  0  0  0  0  0  0  0  0  0
    0.8490   15.3310   53.9470 O   0  0  0  0  0  0  0  0  0  0  0  0
    2.7450   16.7150   53.8500 C   0  0  0  0  0  0  0  0  0  0  0  0
    2.2670   17.7950   53.4140 O   0  0  0  0  0  0  0  0  0  0  0  0
    3.7360   16.7320   54.6290 O   0  0  0  0  0  0  0  0  0  0  0  0
   -0.0210   12.2270   51.3400 H   0  0  0  0  0  0  0  0  0  0  0  0
    0.4270   13.3550   50.0490 H   0  0  0  0  0  0  0  0  0  0  0  0
    4.2200   14.2360   52.2800 C   0  0  0  0  0  0  0  0  0  0  0  0
    8.2340   16.7580   52.4570 O   0  0  0  0  0  0  0  0  0  0  0  0
    7.0070   16.6560   53.2400 S   0  0  0  0  0  0  0  0  0  0  0  0
    5.6940   14.6130   52.1280 C   0  0  0  0  0  0  0  0  0  0  0  0
    5.8760   16.0430   52.2900 N   0  0  0  0  0  0  0  0  0  0  0  0
    6.5450   17.9770   53.6560 O   0  0  0  0  0  0  0  0  0  0  0  0
    2.7690    9.5060   51.7380 S   0  0  0  0  0  0  0  0  0  0  0  0
    6.2280   14.2480   50.7410 C   0  0  0  0  0  0  0  0  0  0  0  0
    7.6290   14.3850   50.7300 O   0  0  0  0  0  0  0  0  0  0  0  0
    7.1350   15.7210   54.3530 O   0  0  0  0  0  0  0  0  0  0  0  0
    5.8410   12.8440   50.2860 C   0  0  0  0  0  0  0  0  0  0  0  0
    6.1420   12.7480   48.8990 O   0  0  0  0  0  0  0  0  0  0  0  0
    1.6240   10.4130   51.8020 O   0  0  0  0  0  0  0  0  0  0  0  0
    4.3520   12.6260   50.5520 C   0  0  0  0  0  0  0  0  0  0  0  0
    4.0410   12.8810   51.9190 O   0  0  0  0  0  0  0  0  0  0  0  0
    2.5640    8.4440   50.7620 O   0  5  0  0  0  0  0  0  0  0  0  0
    3.8950   11.2210   50.1740 C   0  0  0  0  0  0  0  0  0  0  0  0
    4.0010   10.3570   51.2840 O   0  0  0  0  0  0  0  0  0  0  0  0
    3.0940    8.9450   53.0430 O   0  0  0  0  0  0  0  0  0  0  0  0
    5.2620   16.6800   51.7810 H   0  0  0  0  0  0  0  0  0  0  0  0
    7.9190   14.7090   51.5740 H   0  0  0  0  0  0  0  0  0  0  0  0
    6.5710   11.4250   48.4940 C   0  0  0  0  0  0  0  0  0  0  0  0
    5.4800    8.1150   45.5320 O   0  0  0  0  0  0  0  0  0  0  0  0
    6.5450   11.3140   47.0000 C   0  0  0  0  0  0  0  0  0  0  0  0
    6.4970    9.9850   46.6160 O   0  0  0  0  0  0  0  0  0  0  0  0
    4.1690    9.6840   46.7880 O   0  5  0  0  0  0  0  0  0  0  0  0
    7.7100   12.0240   46.3460 C   0  0  0  0  0  0  0  0  0  0  0  0
    7.3710   13.3580   46.2300 O   0  0  0  0  0  0  0  0  0  0  0  0
    5.1070   10.2720   44.6800 O   0  0  0  0  0  0  0  0  0  0  0  0
    9.0130   11.9300   47.0890 C   0  0  0  0  0  0  0  0  0  0  0  0
    9.7680   10.8200   46.7020 O   0  0  0  0  0  0  0  0  0  0  0  0
    8.7750   11.9500   48.5750 C   0  0  0  0  0  0  0  0  0  0  0  0
    7.8100   11.0440   48.9520 O   0  0  0  0  0  0  0  0  0  0  0  0
   10.0420   11.6030   49.2920 C   0  0  0  0  0  0  0  0  0  0  0  0
   10.1680   10.4870   49.8570 O   0  0  0  0  0  0  0  0  0  0  0  0
   10.9830   12.4400   49.3380 O   0  0  0  0  0  0  0  0  0  0  0  0
    5.3120    9.5030   45.8830 S   0  0  0  0  0  0  0  0  0  0  0  0
    6.6550   13.5240   46.8320 H   0  0  0  0  0  0  0  0  0  0  0  0
   10.4680   11.0690   45.4560 C   0  0  0  0  0  0  0  0  0  0  0  0
    8.5220    9.5770   43.3310 O   0  0  0  0  0  0  0  0  0  0  0  0
    9.5420    8.5470   43.4060 S   0  0  0  0  0  0  0  0  0  0  0  0
   11.2040    9.8230   44.9520 C   0  0  0  0  0  0  0  0  0  0  0  0
   10.3020    8.6960   44.8030 N   0  0  0  0  0  0  0  0  0  0  0  0
   10.5250    8.7230   42.3420 O   0  0  0  0  0  0  0  0  0  0  0  0
   12.0430   15.2920   47.0950 S   0  0  0  0  0  0  0  0  0  0  0  0
   12.3580    9.4390   45.8740 C   0  0  0  0  0  0  0  0  0  0  0  0
   13.0750    8.3580   45.3080 O   0  0  0  0  0  0  0  0  0  0  0  0
    8.9790    7.1990   43.4170 O   0  0  0  0  0  0  0  0  0  0  0  0
   13.2840   10.6260   46.0860 C   0  0  0  0  0  0  0  0  0  0  0  0
   14.1920   10.2820   47.1230 O   0  0  0  0  0  0  0  0  0  0  0  0
   12.7470   15.1620   48.3640 O   0  0  0  0  0  0  0  0  0  0  0  0
   12.4350   11.8270   46.5070 C   0  0  0  0  0  0  0  0  0  0  0  0
   11.4200   12.1090   45.5630 O   0  0  0  0  0  0  0  0  0  0  0  0
   12.2790   16.5700   46.4400 O   0  5  0  0  0  0  0  0  0  0  0  0
   13.2710   13.0880   46.6850 C   0  0  0  0  0  0  0  0  0  0  0  0
   12.6130   14.2000   46.1210 O   0  0  0  0  0  0  0  0  0  0  0  0
   10.6130   15.0420   47.2300 O   0  0  0  0  0  0  0  0  0  0  0  0
   10.1580    8.0260   45.5600 H   0  0  0  0  0  0  0  0  0  0  0  0
   12.7280    8.1630   44.4460 H   0  0  0  0  0  0  0  0  0  0  0  0
   15.5300   10.7840   46.9220 C   0  0  0  0  0  0  0  0  0  0  0  0
   16.2260   10.9420   48.2400 C   0  0  0  0  0  0  0  0  0  0  0  0
   15.4860   11.7480   49.0930 O   0  0  0  0  0  0  0  0  0  0  0  0
   17.5680   11.5600   48.0600 C   0  0  0  0  0  0  0  0  0  0  0  0
   18.2160   11.5200   49.2800 O   0  0  0  0  0  0  0  0  0  0  0  0
   18.3720   10.8390   47.0300 C   0  0  0  0  0  0  0  0  0  0  0  0
   19.4480   11.6340   46.6370 O   0  0  0  0  0  0  0  0  0  0  0  0
   17.5260   10.5690   45.8060 C   0  0  0  0  0  0  0  0  0  0  0  0
   16.3150    9.9560   46.1360 O   0  0  0  0  0  0  0  0  0  0  0  0
   18.2430    9.7600   44.7680 C   0  0  0  0  0  0  0  0  0  0  0  0
   18.3180   10.1870   43.5880 O   0  0  0  0  0  0  0  0  0  0  0  0
   18.7530    8.6480   45.0620 O   0  0  0  0  0  0  0  0  0  0  0  0
   15.4210   12.6310   48.7500 H   0  0  0  0  0  0  0  0  0  0  0  0
   18.9540   10.9270   49.1970 H   0  0  0  0  0  0  0  0  0  0  0  0
   20.6400   11.4520   47.4360 C   0  0  0  0  0  0  0  0  0  0  0  0
   21.2610   12.7890   47.6720 C   0  0  0  0  0  0  0  0  0  0  0  0
   20.2770   13.6850   48.1970 N   0  0  0  0  0  0  0  0  0  0  0  0
   21.7490   13.3180   46.3690 C   0  0  0  0  0  0  0  0  0  0  0  0
   22.3240   14.5590   46.5410 O   0  0  0  0  0  0  0  0  0  0  0  0
   22.7440   12.3600   45.8140 C   0  0  0  0  0  0  0  0  0  0  0  0
   23.1960   12.8220   44.5990 O   0  0  0  0  0  0  0  0  0  0  0  0
   22.0540   11.0470   45.6390 C   0  0  0  0  0  0  0  0  0  0  0  0
   21.5830   10.6200   46.8630 O   0  0  0  0  0  0  0  0  0  0  0  0
   22.9670   10.0240   45.0360 C   0  0  0  0  0  0  0  0  0  0  0  0
   22.9740    8.8480   45.7630 O   0  0  0  0  0  0  0  0  0  0  0  0
   20.6450   14.6890   49.1450 C   0  0  0  0  0  0  0  0  0  0  0  0
   21.8070   14.7880   49.5160 O   0  0  0  0  0  0  0  0  0  0  0  0
   25.0640    9.2080   46.8820 O   0  0  0  0  0  0  0  0  0  0  0  0
   19.5990   15.6110   49.6770 C   0  0  0  0  0  0  0  0  0  0  0  0
   24.9160    7.8310   44.9370 O   0  5  0  0  0  0  0  0  0  0  0  0
   23.9960    7.1140   47.0360 O   0  0  0  0  0  0  0  0  0  0  0  0
   24.2600    8.2440   46.1770 S   0  0  0  0  0  0  0  0  0  0  0  0
   19.3060   13.6070   47.8930 H   0  0  0  0  0  0  0  0  0  0  0  0
   21.7000   15.1610   46.9280 H   0  0  0  0  0  0  0  0  0  0  0  0
   22.4920   13.2780   44.1530 H   0  0  0  0  0  0  0  0  0  0  0  0
  1  9  1  0  0  0  0
  1  2  1  0  0  0  0
  2  3  1  0  0  0  0
  3 13  1  0  0  0  0
  2  4  1  0  0  0  0
  4  5  1  0  0  0  0
  5 14  1  0  0  0  0
  4  6  1  0  0  0  0
  6  8  1  0  0  0  0
  6  7  1  0  0  0  0
  8 10  1  0  0  0  0
  8  9  1  0  0  0  0
 10 11  4  0  0  0  0
 10 12  4  0  0  0  0
  7 15  1  0  0  0  0
 15 29  1  0  0  0  0
 16 17  1  0  0  0  0
 17 20  2  0  0  0  0
 17 24  2  0  0  0  0
 15 18  1  0  0  0  0
 18 19  1  0  0  0  0
 17 19  1  0  0  0  0
 19 34  1  0  0  0  0
 21 27  1  0  0  0  0
 21 30  1  0  0  0  0
 21 33  2  0  0  0  0
 18 22  1  0  0  0  0
 22 23  1  0  0  0  0
 23 35  1  0  0  0  0
 22 25  1  0  0  0  0
 25 28  1  0  0  0  0
 25 26  1  0  0  0  0
 28 31  1  0  0  0  0
 28 29  1  0  0  0  0
 31 32  1  0  0  0  0
 21 32  1  0  0  0  0
 26 36  1  0  0  0  0
 36 47  1  0  0  0  0
 36 38  1  0  0  0  0
 38 39  1  0  0  0  0
 39 51  1  0  0  0  0
 38 41  1  0  0  0  0
 41 42  1  0  0  0  0
 42 52  1  0  0  0  0
 41 44  1  0  0  0  0
 44 46  1  0  0  0  0
 44 45  1  0  0  0  0
 46 48  1  0  0  0  0
 46 47  1  0  0  0  0
 48 49  4  0  0  0  0
 48 50  4  0  0  0  0
 37 51  1  0  0  0  0
 40 51  1  0  0  0  0
 43 51  2  0  0  0  0
 45 53  1  0  0  0  0
 53 56  1  0  0  0  0
 53 67  1  0  0  0  0
 54 55  1  0  0  0  0
 55 58  2  0  0  0  0
 55 62  2  0  0  0  0
 56 57  1  0  0  0  0
 56 60  1  0  0  0  0
 55 57  1  0  0  0  0
 57 72  1  0  0  0  0
 59 65  1  0  0  0  0
 59 68  1  0  0  0  0
 59 71  2  0  0  0  0
 60 61  1  0  0  0  0
 60 63  1  0  0  0  0
 61 73  1  0  0  0  0
 63 64  1  0  0  0  0
 63 66  1  0  0  0  0
 64 74  1  0  0  0  0
 66 67  1  0  0  0  0
 66 69  1  0  0  0  0
 69 70  1  0  0  0  0
 59 70  1  0  0  0  0
 74 75  1  0  0  0  0
 74 82  1  0  0  0  0
 75 76  1  0  0  0  0
 75 77  1  0  0  0  0
 76 86  1  0  0  0  0
 77 78  1  0  0  0  0
 77 79  1  0  0  0  0
 78 87  1  0  0  0  0
 79 80  1  0  0  0  0
 79 81  1  0  0  0  0
 80 88  1  0  0  0  0
 81 82  1  0  0  0  0
 81 83  1  0  0  0  0
 83 84  4  0  0  0  0
 83 85  4  0  0  0  0
 88 89  1  0  0  0  0
 88 96  1  0  0  0  0
 89 90  1  0  0  0  0
 89 91  1  0  0  0  0
 90 99  1  0  0  0  0
 90106  1  0  0  0  0
 91 92  1  0  0  0  0
 91 93  1  0  0  0  0
 92107  1  0  0  0  0
 93 94  1  0  0  0  0
 93 95  1  0  0  0  0
 94108  1  0  0  0  0
 95 96  1  0  0  0  0
 95 97  1  0  0  0  0
 97 98  1  0  0  0  0
 98105  1  0  0  0  0
 99100  2  0  0  0  0
 99102  1  0  0  0  0
101105  1  0  0  0  0
103105  1  0  0  0  0
104105  2  0  0  0  0
M  END
$$$$
Run_1_Vina
  PyMOL2.5          3D                             0

108113  0  0  0  0  0  0  0  0999 V2000
   20.4780   13.3910   44.8800 C   0  0  0  0  0  0  0  0  0  0  0  0
   19.5820   13.4810   43.6940 C   0  0  0  0  0  0  0  0  0  0  0  0
   19.4860   14.8080   43.3200 O   0  0  0  0  0  0  0  0  0  0  0  0
   18.2200   12.9590   43.9980 C   0  0  0  0  0  0  0  0  0  0  0  0
   17.5280   12.8580   42.8080 O   0  0  0  0  0  0  0  0  0  0  0  0
   18.2700   11.6220   44.6620 C   0  0  0  0  0  0  0  0  0  0  0  0
   17.0260   11.3370   45.2020 O   0  0  0  0  0  0  0  0  0  0  0  0
   19.2850   11.6260   45.7760 C   0  0  0  0  0  0  0  0  0  0  0  0
   20.5110   12.0800   45.3060 O   0  0  0  0  0  0  0  0  0  0  0  0
   19.4730   10.2680   46.3820 C   0  0  0  0  0  0  0  0  0  0  0  0
   19.4450   10.1310   47.6320 O   0  0  0  0  0  0  0  0  0  0  0  0
   19.6650    9.2660   45.6410 O   0  0  0  0  0  0  0  0  0  0  0  0
   19.1980   14.8440   42.4160 H   0  0  0  0  0  0  0  0  0  0  0  0
   17.5010   11.9400   42.5630 H   0  0  0  0  0  0  0  0  0  0  0  0
   16.5370   12.3920   46.0620 C   0  0  0  0  0  0  0  0  0  0  0  0
   15.0910   10.7780   49.8850 O   0  0  0  0  0  0  0  0  0  0  0  0
   16.3880   10.4070   49.3280 S   0  0  0  0  0  0  0  0  0  0  0  0
   15.6600   11.7750   47.1520 C   0  0  0  0  0  0  0  0  0  0  0  0
   16.3140   10.6230   47.7450 N   0  0  0  0  0  0  0  0  0  0  0  0
   16.6630    8.9910   49.5530 O   0  0  0  0  0  0  0  0  0  0  0  0
   15.4670   15.1120   41.9420 S   0  0  0  0  0  0  0  0  0  0  0  0
   14.3220   11.2880   46.5880 C   0  0  0  0  0  0  0  0  0  0  0  0
   13.4620   10.9580   47.6520 O   0  0  0  0  0  0  0  0  0  0  0  0
   17.4620   11.2770   49.7950 O   0  0  0  0  0  0  0  0  0  0  0  0
   13.6430   12.2960   45.6680 C   0  0  0  0  0  0  0  0  0  0  0  0
   12.5860   11.6180   45.0000 O   0  0  0  0  0  0  0  0  0  0  0  0
   16.0980   15.7680   43.0860 O   0  0  0  0  0  0  0  0  0  0  0  0
   14.6730   12.8400   44.6780 C   0  0  0  0  0  0  0  0  0  0  0  0
   15.8000   13.3760   45.3650 O   0  0  0  0  0  0  0  0  0  0  0  0
   16.4510   14.6640   40.9650 O   0  5  0  0  0  0  0  0  0  0  0  0
   14.0840   13.9000   43.7520 C   0  0  0  0  0  0  0  0  0  0  0  0
   14.7160   13.8540   42.4920 O   0  0  0  0  0  0  0  0  0  0  0  0
   14.4690   15.9630   41.3080 O   0  0  0  0  0  0  0  0  0  0  0  0
   16.7420    9.9290   47.1330 H   0  0  0  0  0  0  0  0  0  0  0  0
   13.1300   11.7550   48.0480 H   0  0  0  0  0  0  0  0  0  0  0  0
   11.5970   11.0640   45.9030 C   0  0  0  0  0  0  0  0  0  0  0  0
   11.3340   13.2370   48.2780 O   0  0  0  0  0  0  0  0  0  0  0  0
   10.4690   12.0340   46.0830 C   0  0  0  0  0  0  0  0  0  0  0  0
    9.7730   11.7530   47.2450 O   0  0  0  0  0  0  0  0  0  0  0  0
    9.1520   12.8880   49.2130 O   0  5  0  0  0  0  0  0  0  0  0  0
    9.5390   12.0670   44.8900 C   0  0  0  0  0  0  0  0  0  0  0  0
   10.0930   12.9200   43.9550 O   0  0  0  0  0  0  0  0  0  0  0  0
   10.8270   11.2000   49.3300 O   0  0  0  0  0  0  0  0  0  0  0  0
    9.2960   10.7370   44.2320 C   0  0  0  0  0  0  0  0  0  0  0  0
    8.2010   10.0650   44.7800 O   0  0  0  0  0  0  0  0  0  0  0  0
   10.5430    9.8950   44.2730 C   0  0  0  0  0  0  0  0  0  0  0  0
   11.0860    9.8420   45.5350 O   0  0  0  0  0  0  0  0  0  0  0  0
   10.2190    8.4970   43.8480 C   0  0  0  0  0  0  0  0  0  0  0  0
   10.2470    7.5560   44.6830 O   0  0  0  0  0  0  0  0  0  0  0  0
    9.9260    8.2600   42.6450 O   0  0  0  0  0  0  0  0  0  0  0  0
   10.2930   12.2710   48.5240 S   0  0  0  0  0  0  0  0  0  0  0  0
    9.3910   13.2200   43.3900 H   0  0  0  0  0  0  0  0  0  0  0  0
    7.0650   10.9530   44.9410 C   0  0  0  0  0  0  0  0  0  0  0  0
    5.8860   11.2610   48.6230 O   0  0  0  0  0  0  0  0  0  0  0  0
    5.3210   10.0370   48.0830 S   0  0  0  0  0  0  0  0  0  0  0  0
    5.8540   10.2330   45.5420 C   0  0  0  0  0  0  0  0  0  0  0  0
    6.1830    9.6070   46.8100 N   0  0  0  0  0  0  0  0  0  0  0  0
    3.9490   10.2600   47.6400 O   0  0  0  0  0  0  0  0  0  0  0  0
    4.1010   12.7070   40.5100 S   0  0  0  0  0  0  0  0  0  0  0  0
    5.2860    9.1890   44.5860 C   0  0  0  0  0  0  0  0  0  0  0  0
    4.1060    8.6360   45.1360 O   0  0  0  0  0  0  0  0  0  0  0  0
    5.4230    8.9140   49.0130 O   0  0  0  0  0  0  0  0  0  0  0  0
    4.9880    9.8170   43.2330 C   0  0  0  0  0  0  0  0  0  0  0  0
    4.6890    8.7640   42.3280 O   0  0  0  0  0  0  0  0  0  0  0  0
    4.5640   12.0880   39.2750 O   0  0  0  0  0  0  0  0  0  0  0  0
    6.2340   10.5710   42.7690 C   0  0  0  0  0  0  0  0  0  0  0  0
    6.6500   11.5340   43.7200 O   0  0  0  0  0  0  0  0  0  0  0  0
    2.8500   12.1450   40.9970 O   0  5  0  0  0  0  0  0  0  0  0  0
    6.0120   11.2890   41.4440 C   0  0  0  0  0  0  0  0  0  0  0  0
    5.1670   12.4040   41.6220 O   0  0  0  0  0  0  0  0  0  0  0  0
    4.0010   14.1570   40.3950 O   0  0  0  0  0  0  0  0  0  0  0  0
    6.9350    8.9200   46.8840 H   0  0  0  0  0  0  0  0  0  0  0  0
    4.2040    8.5510   46.0770 H   0  0  0  0  0  0  0  0  0  0  0  0
    3.2780    8.4950   42.1850 C   0  0  0  0  0  0  0  0  0  0  0  0
    2.9290    8.3210   40.7380 C   0  0  0  0  0  0  0  0  0  0  0  0
    3.3300    9.4250   39.9990 O   0  0  0  0  0  0  0  0  0  0  0  0
    1.4610    8.1500   40.5640 C   0  0  0  0  0  0  0  0  0  0  0  0
    1.2290    7.8280   39.2390 O   0  0  0  0  0  0  0  0  0  0  0  0
    0.9230    7.0790   41.4520 C   0  0  0  0  0  0  0  0  0  0  0  0
   -0.4660    7.1880   41.5280 O   0  0  0  0  0  0  0  0  0  0  0  0
    1.4750    7.2370   42.8510 C   0  0  0  0  0  0  0  0  0  0  0  0
    2.8680    7.3510   42.8500 O   0  0  0  0  0  0  0  0  0  0  0  0
    1.0520    6.1350   43.7740 C   0  0  0  0  0  0  0  0  0  0  0  0
    1.0280    4.9500   43.3580 O   0  0  0  0  0  0  0  0  0  0  0  0
    0.7030    6.3890   44.9560 O   0  0  0  0  0  0  0  0  0  0  0  0
    3.3770   10.1990   40.5490 H   0  0  0  0  0  0  0  0  0  0  0  0
    1.3080    8.6260   38.7290 H   0  0  0  0  0  0  0  0  0  0  0  0
   -0.9280    8.3730   42.2190 C   0  0  0  0  0  0  0  0  0  0  0  0
   -2.2790    8.0920   42.7880 C   0  0  0  0  0  0  0  0  0  0  0  0
   -2.2290    6.8870   43.5590 N   0  0  0  0  0  0  0  0  0  0  0  0
   -3.2350    7.9060   41.6630 C   0  0  0  0  0  0  0  0  0  0  0  0
   -4.4970    7.6360   42.1470 O   0  0  0  0  0  0  0  0  0  0  0  0
   -3.2500    9.1510   40.8470 C   0  0  0  0  0  0  0  0  0  0  0  0
   -4.1160    8.9940   39.7880 O   0  0  0  0  0  0  0  0  0  0  0  0
   -1.8620    9.3750   40.3430 C   0  0  0  0  0  0  0  0  0  0  0  0
   -1.0080    9.4970   41.4200 O   0  0  0  0  0  0  0  0  0  0  0  0
   -1.7860   10.5860   39.4660 C   0  0  0  0  0  0  0  0  0  0  0  0
   -0.5000   11.0860   39.3880 O   0  0  0  0  0  0  0  0  0  0  0  0
   -2.8950    6.8090   44.8210 C   0  0  0  0  0  0  0  0  0  0  0  0
   -3.5120    7.7730   45.2520 O   0  0  0  0  0  0  0  0  0  0  0  0
    1.2380   10.2360   37.9700 O   0  0  0  0  0  0  0  0  0  0  0  0
   -2.8280    5.5410   45.6040 C   0  0  0  0  0  0  0  0  0  0  0  0
    0.6960   12.5610   38.0160 O   0  5  0  0  0  0  0  0  0  0  0  0
   -0.7960   10.9600   37.0280 O   0  0  0  0  0  0  0  0  0  0  0  0
    0.1710   11.1980   38.0740 S   0  0  0  0  0  0  0  0  0  0  0  0
   -1.7160    6.0800   43.2060 H   0  0  0  0  0  0  0  0  0  0  0  0
   -5.1570    7.9970   41.5670 H   0  0  0  0  0  0  0  0  0  0  0  0
   -3.6810    9.2500   38.9830 H   0  0  0  0  0  0  0  0  0  0  0  0
  1  9  1  0  0  0  0
  1  2  1  0  0  0  0
  2  3  1  0  0  0  0
  3 13  1  0  0  0  0
  2  4  1  0  0  0  0
  4  5  1  0  0  0  0
  5 14  1  0  0  0  0
  4  6  1  0  0  0  0
  6  8  1  0  0  0  0
  6  7  1  0  0  0  0
  8 10  1  0  0  0  0
  8  9  1  0  0  0  0
 10 11  4  0  0  0  0
 10 12  4  0  0  0  0
  7 15  1  0  0  0  0
 15 29  1  0  0  0  0
 16 17  1  0  0  0  0
 17 20  2  0  0  0  0
 17 24  2  0  0  0  0
 15 18  1  0  0  0  0
 18 19  1  0  0  0  0
 17 19  1  0  0  0  0
 19 34  1  0  0  0  0
 21 27  1  0  0  0  0
 21 30  1  0  0  0  0
 21 33  2  0  0  0  0
 18 22  1  0  0  0  0
 22 23  1  0  0  0  0
 23 35  1  0  0  0  0
 22 25  1  0  0  0  0
 25 28  1  0  0  0  0
 25 26  1  0  0  0  0
 28 31  1  0  0  0  0
 28 29  1  0  0  0  0
 31 32  1  0  0  0  0
 21 32  1  0  0  0  0
 26 36  1  0  0  0  0
 36 47  1  0  0  0  0
 36 38  1  0  0  0  0
 38 39  1  0  0  0  0
 39 51  1  0  0  0  0
 38 41  1  0  0  0  0
 41 42  1  0  0  0  0
 42 52  1  0  0  0  0
 41 44  1  0  0  0  0
 44 46  1  0  0  0  0
 44 45  1  0  0  0  0
 46 48  1  0  0  0  0
 46 47  1  0  0  0  0
 48 49  4  0  0  0  0
 48 50  4  0  0  0  0
 37 51  1  0  0  0  0
 40 51  1  0  0  0  0
 43 51  2  0  0  0  0
 45 53  1  0  0  0  0
 53 56  1  0  0  0  0
 53 67  1  0  0  0  0
 54 55  1  0  0  0  0
 55 58  2  0  0  0  0
 55 62  2  0  0  0  0
 56 57  1  0  0  0  0
 56 60  1  0  0  0  0
 55 57  1  0  0  0  0
 57 72  1  0  0  0  0
 59 65  1  0  0  0  0
 59 68  1  0  0  0  0
 59 71  2  0  0  0  0
 60 61  1  0  0  0  0
 60 63  1  0  0  0  0
 61 73  1  0  0  0  0
 63 64  1  0  0  0  0
 63 66  1  0  0  0  0
 64 74  1  0  0  0  0
 66 67  1  0  0  0  0
 66 69  1  0  0  0  0
 69 70  1  0  0  0  0
 59 70  1  0  0  0  0
 74 75  1  0  0  0  0
 74 82  1  0  0  0  0
 75 76  1  0  0  0  0
 75 77  1  0  0  0  0
 76 86  1  0  0  0  0
 77 78  1  0  0  0  0
 77 79  1  0  0  0  0
 78 87  1  0  0  0  0
 79 80  1  0  0  0  0
 79 81  1  0  0  0  0
 80 88  1  0  0  0  0
 81 82  1  0  0  0  0
 81 83  1  0  0  0  0
 83 84  4  0  0  0  0
 83 85  4  0  0  0  0
 88 89  1  0  0  0  0
 88 96  1  0  0  0  0
 89 90  1  0  0  0  0
 89 91  1  0  0  0  0
 90 99  1  0  0  0  0
 90106  1  0  0  0  0
 91 92  1  0  0  0  0
 91 93  1  0  0  0  0
 92107  1  0  0  0  0
 93 94  1  0  0  0  0
 93 95  1  0  0  0  0
 94108  1  0  0  0  0
 95 96  1  0  0  0  0
 95 97  1  0  0  0  0
 97 98  1  0  0  0  0
 98105  1  0  0  0  0
 99100  2  0  0  0  0
 99102  1  0  0  0  0
101105  1  0  0  0  0
103105  1  0  0  0  0
104105  2  0  0  0  0
M  END
$$$$
Run_1_Vina
  PyMOL2.5          3D                             0

108113  0  0  0  0  0  0  0  0999 V2000
   20.3410   13.9950   45.2060 C   0  0  0  0  0  0  0  0  0  0  0  0
   19.6000   13.5080   44.0100 C   0  0  0  0  0  0  0  0  0  0  0  0
   19.3160   14.5920   43.2020 O   0  0  0  0  0  0  0  0  0  0  0  0
   18.3260   12.8360   44.3930 C   0  0  0  0  0  0  0  0  0  0  0  0
   17.8190   12.2140   43.2700 O   0  0  0  0  0  0  0  0  0  0  0  0
   18.5310   11.8270   45.4740 C   0  0  0  0  0  0  0  0  0  0  0  0
   17.3000   11.4740   46.0050 O   0  0  0  0  0  0  0  0  0  0  0  0
   19.3800   12.4020   46.5780 C   0  0  0  0  0  0  0  0  0  0  0  0
   20.5530   12.9290   46.0550 O   0  0  0  0  0  0  0  0  0  0  0  0
   19.7290   11.3830   47.6200 C   0  0  0  0  0  0  0  0  0  0  0  0
   20.2110   10.2730   47.2740 O   0  0  0  0  0  0  0  0  0  0  0  0
   19.5330   11.6340   48.8390 O   0  0  0  0  0  0  0  0  0  0  0  0
   19.9580   15.2700   43.3750 H   0  0  0  0  0  0  0  0  0  0  0  0
   17.8780   12.8260   42.5450 H   0  0  0  0  0  0  0  0  0  0  0  0
   16.6170   12.5930   46.6170 C   0  0  0  0  0  0  0  0  0  0  0  0
   17.1740   11.9010   50.7210 O   0  0  0  0  0  0  0  0  0  0  0  0
   16.1380   11.0640   50.1250 S   0  0  0  0  0  0  0  0  0  0  0  0
   15.6680   12.0640   47.6930 C   0  0  0  0  0  0  0  0  0  0  0  0
   16.3420   11.0970   48.5400 N   0  0  0  0  0  0  0  0  0  0  0  0
   14.8110   11.6100   50.3960 O   0  0  0  0  0  0  0  0  0  0  0  0
   15.7290   14.5770   41.9690 S   0  0  0  0  0  0  0  0  0  0  0  0
   14.4590   11.3560   47.0780 C   0  0  0  0  0  0  0  0  0  0  0  0
   13.5050   11.1060   48.0830 O   0  0  0  0  0  0  0  0  0  0  0  0
   16.2660    9.6620   50.5100 O   0  0  0  0  0  0  0  0  0  0  0  0
   13.8140   12.1280   45.9320 C   0  0  0  0  0  0  0  0  0  0  0  0
   12.9120   11.2450   45.2780 O   0  0  0  0  0  0  0  0  0  0  0  0
   16.9210   14.1540   41.2360 O   0  0  0  0  0  0  0  0  0  0  0  0
   14.9070   12.6170   44.9830 C   0  0  0  0  0  0  0  0  0  0  0  0
   15.8890   13.3720   45.6890 O   0  0  0  0  0  0  0  0  0  0  0  0
   14.7000   15.0940   41.0750 O   0  5  0  0  0  0  0  0  0  0  0  0
   14.3480   13.4500   43.8340 C   0  0  0  0  0  0  0  0  0  0  0  0
   15.1590   13.3100   42.6890 O   0  0  0  0  0  0  0  0  0  0  0  0
   16.0420   15.5530   43.0050 O   0  0  0  0  0  0  0  0  0  0  0  0
   16.9670   10.4150   48.1090 H   0  0  0  0  0  0  0  0  0  0  0  0
   13.8640   10.4890   48.7100 H   0  0  0  0  0  0  0  0  0  0  0  0
   11.8440   10.7730   46.1370 C   0  0  0  0  0  0  0  0  0  0  0  0
    9.2260   12.9710   49.2060 O   0  0  0  0  0  0  0  0  0  0  0  0
   10.8010   11.8380   46.2860 C   0  0  0  0  0  0  0  0  0  0  0  0
   10.0380   11.6100   47.4190 O   0  0  0  0  0  0  0  0  0  0  0  0
   10.9020   11.2970   49.5860 O   0  5  0  0  0  0  0  0  0  0  0  0
    9.9230   11.9650   45.0600 C   0  0  0  0  0  0  0  0  0  0  0  0
   10.5860   12.7730   44.1570 O   0  0  0  0  0  0  0  0  0  0  0  0
   11.4130   13.3070   48.4160 O   0  0  0  0  0  0  0  0  0  0  0  0
    9.5890   10.6680   44.3780 C   0  0  0  0  0  0  0  0  0  0  0  0
    8.4170   10.0910   44.8760 O   0  0  0  0  0  0  0  0  0  0  0  0
   10.7530    9.7180   44.4540 C   0  0  0  0  0  0  0  0  0  0  0  0
   11.2410    9.6050   45.7350 O   0  0  0  0  0  0  0  0  0  0  0  0
   10.3220    8.3590   44.0000 C   0  0  0  0  0  0  0  0  0  0  0  0
   10.4280    7.3680   44.7690 O   0  0  0  0  0  0  0  0  0  0  0  0
    9.8610    8.2040   42.8380 O   0  0  0  0  0  0  0  0  0  0  0  0
   10.3910   12.3190   48.6630 S   0  0  0  0  0  0  0  0  0  0  0  0
   10.4020   13.6750   44.3920 H   0  0  0  0  0  0  0  0  0  0  0  0
    7.3570   11.0730   44.9940 C   0  0  0  0  0  0  0  0  0  0  0  0
    4.7990   11.5750   47.7560 O   0  0  0  0  0  0  0  0  0  0  0  0
    5.4170   10.3080   48.1000 S   0  0  0  0  0  0  0  0  0  0  0  0
    6.0790   10.4700   45.5860 C   0  0  0  0  0  0  0  0  0  0  0  0
    6.3320    9.8480   46.8730 N   0  0  0  0  0  0  0  0  0  0  0  0
    4.4000    9.2830   48.3070 O   0  0  0  0  0  0  0  0  0  0  0  0
    4.8840   13.4730   41.4080 S   0  0  0  0  0  0  0  0  0  0  0  0
    5.4440    9.4540   44.6410 C   0  0  0  0  0  0  0  0  0  0  0  0
    4.2120    9.0130   45.1790 O   0  0  0  0  0  0  0  0  0  0  0  0
    6.3280   10.4170   49.2370 O   0  0  0  0  0  0  0  0  0  0  0  0
    5.2240   10.0730   43.2690 C   0  0  0  0  0  0  0  0  0  0  0  0
    4.8560    9.0280   42.3810 O   0  0  0  0  0  0  0  0  0  0  0  0
    4.1170   13.3480   42.6410 O   0  0  0  0  0  0  0  0  0  0  0  0
    6.5370   10.7120   42.8150 C   0  0  0  0  0  0  0  0  0  0  0  0
    7.0130   11.6580   43.7540 O   0  0  0  0  0  0  0  0  0  0  0  0
    5.1580   14.8550   41.0440 O   0  5  0  0  0  0  0  0  0  0  0  0
    6.4000   11.4150   41.4710 C   0  0  0  0  0  0  0  0  0  0  0  0
    6.2860   12.8090   41.6520 O   0  0  0  0  0  0  0  0  0  0  0  0
    4.2610   12.7640   40.2970 O   0  0  0  0  0  0  0  0  0  0  0  0
    7.0630    9.1460   46.9900 H   0  0  0  0  0  0  0  0  0  0  0  0
    3.8930    9.6510   45.8060 H   0  0  0  0  0  0  0  0  0  0  0  0
    3.4300    8.8700   42.2190 C   0  0  0  0  0  0  0  0  0  0  0  0
    3.0770    8.8430   40.7630 C   0  0  0  0  0  0  0  0  0  0  0  0
    3.5550    9.9740   40.1190 O   0  0  0  0  0  0  0  0  0  0  0  0
    1.6010    8.7890   40.5770 C   0  0  0  0  0  0  0  0  0  0  0  0
    1.3530    8.5960   39.2310 O   0  0  0  0  0  0  0  0  0  0  0  0
    0.9860    7.6870   41.3730 C   0  0  0  0  0  0  0  0  0  0  0  0
   -0.3920    7.8860   41.4600 O   0  0  0  0  0  0  0  0  0  0  0  0
    1.5420    7.6890   42.7800 C   0  0  0  0  0  0  0  0  0  0  0  0
    2.9390    7.7060   42.7860 O   0  0  0  0  0  0  0  0  0  0  0  0
    1.0400    6.5460   43.6080 C   0  0  0  0  0  0  0  0  0  0  0  0
    0.6790    6.7480   44.7950 O   0  0  0  0  0  0  0  0  0  0  0  0
    0.9940    5.3820   43.1330 O   0  0  0  0  0  0  0  0  0  0  0  0
    4.0190   10.5380   40.7270 H   0  0  0  0  0  0  0  0  0  0  0  0
    0.8420    7.7990   39.1410 H   0  0  0  0  0  0  0  0  0  0  0  0
   -1.1710    6.9940   40.6290 C   0  0  0  0  0  0  0  0  0  0  0  0
   -2.2880    7.7720   40.0160 C   0  0  0  0  0  0  0  0  0  0  0  0
   -1.7600    8.9370   39.3740 N   0  0  0  0  0  0  0  0  0  0  0  0
   -3.2160    8.1960   41.0990 C   0  0  0  0  0  0  0  0  0  0  0  0
   -4.2610    8.9270   40.5760 O   0  0  0  0  0  0  0  0  0  0  0  0
   -3.7300    6.9780   41.7840 C   0  0  0  0  0  0  0  0  0  0  0  0
   -4.5780    7.3490   42.8030 O   0  0  0  0  0  0  0  0  0  0  0  0
   -2.5520    6.2450   42.3390 C   0  0  0  0  0  0  0  0  0  0  0  0
   -1.7020    5.9120   41.3040 O   0  0  0  0  0  0  0  0  0  0  0  0
   -2.9740    5.0220   43.0920 C   0  0  0  0  0  0  0  0  0  0  0  0
   -2.8010    5.1710   44.4550 O   0  0  0  0  0  0  0  0  0  0  0  0
   -2.3580    9.4360   38.1770 C   0  0  0  0  0  0  0  0  0  0  0  0
   -3.3260    8.8690   37.6900 O   0  0  0  0  0  0  0  0  0  0  0  0
   -4.8760    6.0260   45.3000 O   0  0  0  0  0  0  0  0  0  0  0  0
   -1.7880   10.6530   37.5270 C   0  0  0  0  0  0  0  0  0  0  0  0
   -3.3490    4.8510   46.7110 O   0  5  0  0  0  0  0  0  0  0  0  0
   -4.5950    3.7060   45.0080 O   0  0  0  0  0  0  0  0  0  0  0  0
   -3.9370    4.9370   45.3750 S   0  0  0  0  0  0  0  0  0  0  0  0
   -0.9520    9.4140   39.7740 H   0  0  0  0  0  0  0  0  0  0  0  0
   -5.0740    8.7000   41.0110 H   0  0  0  0  0  0  0  0  0  0  0  0
   -5.3570    6.8060   42.7780 H   0  0  0  0  0  0  0  0  0  0  0  0
  1  9  1  0  0  0  0
  1  2  1  0  0  0  0
  2  3  1  0  0  0  0
  3 13  1  0  0  0  0
  2  4  1  0  0  0  0
  4  5  1  0  0  0  0
  5 14  1  0  0  0  0
  4  6  1  0  0  0  0
  6  8  1  0  0  0  0
  6  7  1  0  0  0  0
  8 10  1  0  0  0  0
  8  9  1  0  0  0  0
 10 11  4  0  0  0  0
 10 12  4  0  0  0  0
  7 15  1  0  0  0  0
 15 29  1  0  0  0  0
 16 17  1  0  0  0  0
 17 20  2  0  0  0  0
 17 24  2  0  0  0  0
 15 18  1  0  0  0  0
 18 19  1  0  0  0  0
 17 19  1  0  0  0  0
 19 34  1  0  0  0  0
 21 27  1  0  0  0  0
 21 30  1  0  0  0  0
 21 33  2  0  0  0  0
 18 22  1  0  0  0  0
 22 23  1  0  0  0  0
 23 35  1  0  0  0  0
 22 25  1  0  0  0  0
 25 28  1  0  0  0  0
 25 26  1  0  0  0  0
 28 31  1  0  0  0  0
 28 29  1  0  0  0  0
 31 32  1  0  0  0  0
 21 32  1  0  0  0  0
 26 36  1  0  0  0  0
 36 47  1  0  0  0  0
 36 38  1  0  0  0  0
 38 39  1  0  0  0  0
 39 51  1  0  0  0  0
 38 41  1  0  0  0  0
 41 42  1  0  0  0  0
 42 52  1  0  0  0  0
 41 44  1  0  0  0  0
 44 46  1  0  0  0  0
 44 45  1  0  0  0  0
 46 48  1  0  0  0  0
 46 47  1  0  0  0  0
 48 49  4  0  0  0  0
 48 50  4  0  0  0  0
 37 51  1  0  0  0  0
 40 51  1  0  0  0  0
 43 51  2  0  0  0  0
 45 53  1  0  0  0  0
 53 56  1  0  0  0  0
 53 67  1  0  0  0  0
 54 55  1  0  0  0  0
 55 58  2  0  0  0  0
 55 62  2  0  0  0  0
 56 57  1  0  0  0  0
 56 60  1  0  0  0  0
 55 57  1  0  0  0  0
 57 72  1  0  0  0  0
 59 65  1  0  0  0  0
 59 68  1  0  0  0  0
 59 71  2  0  0  0  0
 60 61  1  0  0  0  0
 60 63  1  0  0  0  0
 61 73  1  0  0  0  0
 63 64  1  0  0  0  0
 63 66  1  0  0  0  0
 64 74  1  0  0  0  0
 66 67  1  0  0  0  0
 66 69  1  0  0  0  0
 69 70  1  0  0  0  0
 59 70  1  0  0  0  0
 74 75  1  0  0  0  0
 74 82  1  0  0  0  0
 75 76  1  0  0  0  0
 75 77  1  0  0  0  0
 76 86  1  0  0  0  0
 77 78  1  0  0  0  0
 77 79  1  0  0  0  0
 78 87  1  0  0  0  0
 79 80  1  0  0  0  0
 79 81  1  0  0  0  0
 80 88  1  0  0  0  0
 81 82  1  0  0  0  0
 81 83  1  0  0  0  0
 83 84  4  0  0  0  0
 83 85  4  0  0  0  0
 88 89  1  0  0  0  0
 88 96  1  0  0  0  0
 89 90  1  0  0  0  0
 89 91  1  0  0  0  0
 90 99  1  0  0  0  0
 90106  1  0  0  0  0
 91 92  1  0  0  0  0
 91 93  1  0  0  0  0
 92107  1  0  0  0  0
 93 94  1  0  0  0  0
 93 95  1  0  0  0  0
 94108  1  0  0  0  0
 95 96  1  0  0  0  0
 95 97  1  0  0  0  0
 97 98  1  0  0  0  0
 98105  1  0  0  0  0
 99100  2  0  0  0  0
 99102  1  0  0  0  0
101105  1  0  0  0  0
103105  1  0  0  0  0
104105  2  0  0  0  0
M  END
$$$$
Run_1_Vina
  PyMOL2.5          3D                             0

108113  0  0  0  0  0  0  0  0999 V2000
   20.8580   10.1010   45.7890 C   0  0  0  0  0  0  0  0  0  0  0  0
   20.4830   10.5260   47.1660 C   0  0  0  0  0  0  0  0  0  0  0  0
   20.8850    9.5440   48.0490 O   0  0  0  0  0  0  0  0  0  0  0  0
   19.0120   10.7270   47.2920 C   0  0  0  0  0  0  0  0  0  0  0  0
   18.7700   11.3370   48.5080 O   0  0  0  0  0  0  0  0  0  0  0  0
   18.4670   11.5740   46.1910 C   0  0  0  0  0  0  0  0  0  0  0  0
   17.0850   11.4640   46.1740 O   0  0  0  0  0  0  0  0  0  0  0  0
   18.9990   11.1110   44.8590 C   0  0  0  0  0  0  0  0  0  0  0  0
   20.3850   11.0390   44.8950 O   0  0  0  0  0  0  0  0  0  0  0  0
   18.5900   12.0160   43.7360 C   0  0  0  0  0  0  0  0  0  0  0  0
   18.4790   13.2530   43.9370 O   0  0  0  0  0  0  0  0  0  0  0  0
   18.3520   11.5380   42.5940 O   0  0  0  0  0  0  0  0  0  0  0  0
   21.3660    8.8840   47.5650 H   0  0  0  0  0  0  0  0  0  0  0  0
   17.8350   11.4920   48.5750 H   0  0  0  0  0  0  0  0  0  0  0  0
   16.4290   12.5920   46.7970 C   0  0  0  0  0  0  0  0  0  0  0  0
   16.2190    9.7580   50.7320 O   0  0  0  0  0  0  0  0  0  0  0  0
   15.8800   11.0860   50.2300 S   0  0  0  0  0  0  0  0  0  0  0  0
   15.3940   12.0730   47.7950 C   0  0  0  0  0  0  0  0  0  0  0  0
   15.9660   11.0360   48.6340 N   0  0  0  0  0  0  0  0  0  0  0  0
   16.8540   12.0750   50.6790 O   0  0  0  0  0  0  0  0  0  0  0  0
   15.5820   14.8030   41.9500 S   0  0  0  0  0  0  0  0  0  0  0  0
   14.1860   11.4580   47.0850 C   0  0  0  0  0  0  0  0  0  0  0  0
   13.1640   11.2200   48.0240 O   0  0  0  0  0  0  0  0  0  0  0  0
   14.5040   11.4620   50.5380 O   0  0  0  0  0  0  0  0  0  0  0  0
   13.6480   12.3120   45.9410 C   0  0  0  0  0  0  0  0  0  0  0  0
   12.7400   11.5070   45.2000 O   0  0  0  0  0  0  0  0  0  0  0  0
   14.2580   14.6220   41.3580 O   0  0  0  0  0  0  0  0  0  0  0  0
   14.8180   12.7780   45.0750 C   0  0  0  0  0  0  0  0  0  0  0  0
   15.7970   13.4470   45.8660 O   0  0  0  0  0  0  0  0  0  0  0  0
   16.0430   16.1810   41.8310 O   0  5  0  0  0  0  0  0  0  0  0  0
   14.3700   13.6870   43.9350 C   0  0  0  0  0  0  0  0  0  0  0  0
   15.4540   14.4610   43.4710 O   0  0  0  0  0  0  0  0  0  0  0  0
   16.5630   13.8860   41.3860 O   0  0  0  0  0  0  0  0  0  0  0  0
   16.4410   10.2490   48.1900 H   0  0  0  0  0  0  0  0  0  0  0  0
   12.3870   10.9120   47.5720 H   0  0  0  0  0  0  0  0  0  0  0  0
   11.6610   10.9690   46.0040 C   0  0  0  0  0  0  0  0  0  0  0  0
    8.9140   12.9110   49.1030 O   0  0  0  0  0  0  0  0  0  0  0  0
   10.5680   11.9850   46.1390 C   0  0  0  0  0  0  0  0  0  0  0  0
    9.7730   11.6960   47.2340 O   0  0  0  0  0  0  0  0  0  0  0  0
   10.6220   11.2490   49.3840 O   0  5  0  0  0  0  0  0  0  0  0  0
    9.7330   12.1080   44.8830 C   0  0  0  0  0  0  0  0  0  0  0  0
   10.3950   12.9670   44.0270 O   0  0  0  0  0  0  0  0  0  0  0  0
   11.1000   13.3460   48.3630 O   0  0  0  0  0  0  0  0  0  0  0  0
    9.4810   10.8170   44.1550 C   0  0  0  0  0  0  0  0  0  0  0  0
    8.3170   10.1780   44.5920 O   0  0  0  0  0  0  0  0  0  0  0  0
   10.6810    9.9140   44.2530 C   0  0  0  0  0  0  0  0  0  0  0  0
   11.1240    9.7880   45.5500 O   0  0  0  0  0  0  0  0  0  0  0  0
   10.3260    8.5510   43.7490 C   0  0  0  0  0  0  0  0  0  0  0  0
   10.2210    7.5840   44.5480 O   0  0  0  0  0  0  0  0  0  0  0  0
   10.1420    8.3680   42.5160 O   0  0  0  0  0  0  0  0  0  0  0  0
   10.0980   12.3220   48.5290 S   0  0  0  0  0  0  0  0  0  0  0  0
   11.3270   12.8350   44.1550 H   0  0  0  0  0  0  0  0  0  0  0  0
    7.2250   11.1210   44.7420 C   0  0  0  0  0  0  0  0  0  0  0  0
    4.4280    9.3240   48.1680 O   0  0  0  0  0  0  0  0  0  0  0  0
    5.4450   10.3290   47.9210 S   0  0  0  0  0  0  0  0  0  0  0  0
    5.9910   10.4740   45.3790 C   0  0  0  0  0  0  0  0  0  0  0  0
    6.3100    9.8690   46.6590 N   0  0  0  0  0  0  0  0  0  0  0  0
    6.3460   10.4360   49.0650 O   0  0  0  0  0  0  0  0  0  0  0  0
    4.3320   13.1270   40.6900 S   0  0  0  0  0  0  0  0  0  0  0  0
    5.3630    9.4310   44.4600 C   0  0  0  0  0  0  0  0  0  0  0  0
    4.1670    8.9470   45.0400 O   0  0  0  0  0  0  0  0  0  0  0  0
    4.8780   11.6220   47.5460 O   0  0  0  0  0  0  0  0  0  0  0  0
    5.0750   10.0330   43.0940 C   0  0  0  0  0  0  0  0  0  0  0  0
    4.7170    8.9700   42.2230 O   0  0  0  0  0  0  0  0  0  0  0  0
    3.2080   12.5950   41.4490 O   0  0  0  0  0  0  0  0  0  0  0  0
    6.3480   10.7180   42.5930 C   0  0  0  0  0  0  0  0  0  0  0  0
    6.8190   11.6870   43.5110 O   0  0  0  0  0  0  0  0  0  0  0  0
    4.3450   14.5820   40.6330 O   0  5  0  0  0  0  0  0  0  0  0  0
    6.1390   11.4090   41.2510 C   0  0  0  0  0  0  0  0  0  0  0  0
    5.6490   12.7170   41.4400 O   0  0  0  0  0  0  0  0  0  0  0  0
    4.4080   12.5610   39.3490 O   0  0  0  0  0  0  0  0  0  0  0  0
    7.0550    9.1770   46.7500 H   0  0  0  0  0  0  0  0  0  0  0  0
    4.2200    9.0230   45.9860 H   0  0  0  0  0  0  0  0  0  0  0  0
    3.2940    8.7510   42.1180 C   0  0  0  0  0  0  0  0  0  0  0  0
    2.8800    8.7260   40.6780 C   0  0  0  0  0  0  0  0  0  0  0  0
    3.2790    9.8850   40.0310 O   0  0  0  0  0  0  0  0  0  0  0  0
    1.4010    8.6070   40.5550 C   0  0  0  0  0  0  0  0  0  0  0  0
    1.1040    8.4200   39.2170 O   0  0  0  0  0  0  0  0  0  0  0  0
    0.8700    7.4700   41.3610 C   0  0  0  0  0  0  0  0  0  0  0  0
   -0.5100    7.6050   41.5090 O   0  0  0  0  0  0  0  0  0  0  0  0
    1.4860    7.4800   42.7420 C   0  0  0  0  0  0  0  0  0  0  0  0
    2.8800    7.5590   42.6900 O   0  0  0  0  0  0  0  0  0  0  0  0
    1.0710    6.3040   43.5750 C   0  0  0  0  0  0  0  0  0  0  0  0
    0.7820    6.4720   44.7860 O   0  0  0  0  0  0  0  0  0  0  0  0
    1.0280    5.1500   43.0770 O   0  0  0  0  0  0  0  0  0  0  0  0
    2.9060    9.9300   39.1580 H   0  0  0  0  0  0  0  0  0  0  0  0
    1.8020    8.8160   38.7070 H   0  0  0  0  0  0  0  0  0  0  0  0
   -1.2730    7.1540   40.3650 C   0  0  0  0  0  0  0  0  0  0  0  0
   -2.5760    7.8830   40.3490 C   0  0  0  0  0  0  0  0  0  0  0  0
   -2.3350    9.2910   40.4340 N   0  0  0  0  0  0  0  0  0  0  0  0
   -3.3700    7.4550   41.5330 C   0  0  0  0  0  0  0  0  0  0  0  0
   -4.5810    8.1130   41.5600 O   0  0  0  0  0  0  0  0  0  0  0  0
   -3.5820    5.9840   41.4530 C   0  0  0  0  0  0  0  0  0  0  0  0
   -4.3000    5.5650   42.5500 O   0  0  0  0  0  0  0  0  0  0  0  0
   -2.2360    5.3360   41.4430 C   0  0  0  0  0  0  0  0  0  0  0  0
   -1.5250    5.7950   40.3540 O   0  0  0  0  0  0  0  0  0  0  0  0
   -2.3480    3.8440   41.4130 C   0  0  0  0  0  0  0  0  0  0  0  0
   -3.4180    3.4220   40.6460 O   0  0  0  0  0  0  0  0  0  0  0  0
   -1.8880   10.0180   39.2890 C   0  0  0  0  0  0  0  0  0  0  0  0
   -1.7060    9.4420   38.2260 O   0  0  0  0  0  0  0  0  0  0  0  0
   -3.3880    1.1090   41.2820 O   0  0  0  0  0  0  0  0  0  0  0  0
   -1.6440   11.4860   39.4060 C   0  0  0  0  0  0  0  0  0  0  0  0
   -5.1860    2.0250   40.0040 O   0  5  0  0  0  0  0  0  0  0  0  0
   -4.8960    2.5920   42.3190 O   0  0  0  0  0  0  0  0  0  0  0  0
   -4.2270    2.2620   41.0830 S   0  0  0  0  0  0  0  0  0  0  0  0
   -2.4850    9.7780   41.3180 H   0  0  0  0  0  0  0  0  0  0  0  0
   -4.4650    9.0280   41.3340 H   0  0  0  0  0  0  0  0  0  0  0  0
   -3.7680    5.6610   43.3310 H   0  0  0  0  0  0  0  0  0  0  0  0
  1  9  1  0  0  0  0
  1  2  1  0  0  0  0
  2  3  1  0  0  0  0
  3 13  1  0  0  0  0
  2  4  1  0  0  0  0
  4  5  1  0  0  0  0
  5 14  1  0  0  0  0
  4  6  1  0  0  0  0
  6  8  1  0  0  0  0
  6  7  1  0  0  0  0
  8 10  1  0  0  0  0
  8  9  1  0  0  0  0
 10 11  4  0  0  0  0
 10 12  4  0  0  0  0
  7 15  1  0  0  0  0
 15 29  1  0  0  0  0
 16 17  1  0  0  0  0
 17 20  2  0  0  0  0
 17 24  2  0  0  0  0
 15 18  1  0  0  0  0
 18 19  1  0  0  0  0
 17 19  1  0  0  0  0
 19 34  1  0  0  0  0
 21 27  1  0  0  0  0
 21 30  1  0  0  0  0
 21 33  2  0  0  0  0
 18 22  1  0  0  0  0
 22 23  1  0  0  0  0
 23 35  1  0  0  0  0
 22 25  1  0  0  0  0
 25 28  1  0  0  0  0
 25 26  1  0  0  0  0
 28 31  1  0  0  0  0
 28 29  1  0  0  0  0
 31 32  1  0  0  0  0
 21 32  1  0  0  0  0
 26 36  1  0  0  0  0
 36 47  1  0  0  0  0
 36 38  1  0  0  0  0
 38 39  1  0  0  0  0
 39 51  1  0  0  0  0
 38 41  1  0  0  0  0
 41 42  1  0  0  0  0
 42 52  1  0  0  0  0
 41 44  1  0  0  0  0
 44 46  1  0  0  0  0
 44 45  1  0  0  0  0
 46 48  1  0  0  0  0
 46 47  1  0  0  0  0
 48 49  4  0  0  0  0
 48 50  4  0  0  0  0
 37 51  1  0  0  0  0
 40 51  1  0  0  0  0
 43 51  2  0  0  0  0
 45 53  1  0  0  0  0
 53 56  1  0  0  0  0
 53 67  1  0  0  0  0
 54 55  1  0  0  0  0
 55 58  2  0  0  0  0
 55 62  2  0  0  0  0
 56 57  1  0  0  0  0
 56 60  1  0  0  0  0
 55 57  1  0  0  0  0
 57 72  1  0  0  0  0
 59 65  1  0  0  0  0
 59 68  1  0  0  0  0
 59 71  2  0  0  0  0
 60 61  1  0  0  0  0
 60 63  1  0  0  0  0
 61 73  1  0  0  0  0
 63 64  1  0  0  0  0
 63 66  1  0  0  0  0
 64 74  1  0  0  0  0
 66 67  1  0  0  0  0
 66 69  1  0  0  0  0
 69 70  1  0  0  0  0
 59 70  1  0  0  0  0
 74 75  1  0  0  0  0
 74 82  1  0  0  0  0
 75 76  1  0  0  0  0
 75 77  1  0  0  0  0
 76 86  1  0  0  0  0
 77 78  1  0  0  0  0
 77 79  1  0  0  0  0
 78 87  1  0  0  0  0
 79 80  1  0  0  0  0
 79 81  1  0  0  0  0
 80 88  1  0  0  0  0
 81 82  1  0  0  0  0
 81 83  1  0  0  0  0
 83 84  4  0  0  0  0
 83 85  4  0  0  0  0
 88 89  1  0  0  0  0
 88 96  1  0  0  0  0
 89 90  1  0  0  0  0
 89 91  1  0  0  0  0
 90 99  1  0  0  0  0
 90106  1  0  0  0  0
 91 92  1  0  0  0  0
 91 93  1  0  0  0  0
 92107  1  0  0  0  0
 93 94  1  0  0  0  0
 93 95  1  0  0  0  0
 94108  1  0  0  0  0
 95 96  1  0  0  0  0
 95 97  1  0  0  0  0
 97 98  1  0  0  0  0
 98105  1  0  0  0  0
 99100  2  0  0  0  0
 99102  1  0  0  0  0
101105  1  0  0  0  0
103105  1  0  0  0  0
104105  2  0  0  0  0
M  END
$$$$
Run_1_Vina
  PyMOL2.5          3D                             0

108113  0  0  0  0  0  0  0  0999 V2000
   23.5040   16.3860   44.3890 C   0  0  0  0  0  0  0  0  0  0  0  0
   22.0470   16.6750   44.2920 C   0  0  0  0  0  0  0  0  0  0  0  0
   21.7910   17.8560   44.9610 O   0  0  0  0  0  0  0  0  0  0  0  0
   21.2330   15.5840   44.8970 C   0  0  0  0  0  0  0  0  0  0  0  0
   19.9110   15.8050   44.5640 O   0  0  0  0  0  0  0  0  0  0  0  0
   21.6520   14.2370   44.4060 C   0  0  0  0  0  0  0  0  0  0  0  0
   21.0970   13.2640   45.2230 O   0  0  0  0  0  0  0  0  0  0  0  0
   23.1520   14.1030   44.4560 C   0  0  0  0  0  0  0  0  0  0  0  0
   23.7510   15.1670   43.7940 O   0  0  0  0  0  0  0  0  0  0  0  0
   23.6310   12.8210   43.8440 C   0  0  0  0  0  0  0  0  0  0  0  0
   22.8830   12.1850   43.0570 O   0  0  0  0  0  0  0  0  0  0  0  0
   24.7780   12.3780   44.1230 O   0  0  0  0  0  0  0  0  0  0  0  0
   20.8560   18.0170   44.9380 H   0  0  0  0  0  0  0  0  0  0  0  0
   19.3710   15.4510   45.2620 H   0  0  0  0  0  0  0  0  0  0  0  0
   21.7990   13.1260   46.4800 C   0  0  0  0  0  0  0  0  0  0  0  0
   24.2700   10.2230   46.7130 O   0  0  0  0  0  0  0  0  0  0  0  0
   23.1510    9.6430   45.9780 S   0  0  0  0  0  0  0  0  0  0  0  0
   21.7040   11.6710   46.9420 C   0  0  0  0  0  0  0  0  0  0  0  0
   22.0200   10.7660   45.8520 N   0  0  0  0  0  0  0  0  0  0  0  0
   22.5660    8.5290   46.7180 O   0  0  0  0  0  0  0  0  0  0  0  0
   20.6400   15.9400   50.6380 S   0  0  0  0  0  0  0  0  0  0  0  0
   20.2920   11.3230   47.4180 C   0  0  0  0  0  0  0  0  0  0  0  0
   20.3110   10.0670   48.0540 O   0  0  0  0  0  0  0  0  0  0  0  0
   23.5100    9.2900   44.6080 O   0  0  0  0  0  0  0  0  0  0  0  0
   19.6850   12.3660   48.3510 C   0  0  0  0  0  0  0  0  0  0  0  0
   18.3000   12.0700   48.4760 O   0  0  0  0  0  0  0  0  0  0  0  0
   19.6730   16.5800   51.5280 O   0  0  0  0  0  0  0  0  0  0  0  0
   19.9110   13.7560   47.7570 C   0  0  0  0  0  0  0  0  0  0  0  0
   21.2930   13.9740   47.4910 O   0  0  0  0  0  0  0  0  0  0  0  0
   21.7890   15.4220   51.3700 O   0  5  0  0  0  0  0  0  0  0  0  0
   19.3790   14.8650   48.6600 C   0  0  0  0  0  0  0  0  0  0  0  0
   19.9090   14.7330   49.9600 O   0  0  0  0  0  0  0  0  0  0  0  0
   21.0730   16.8310   49.5710 O   0  0  0  0  0  0  0  0  0  0  0  0
   21.5030   10.8500   44.9760 H   0  0  0  0  0  0  0  0  0  0  0  0
   21.0330   10.0390   48.6710 H   0  0  0  0  0  0  0  0  0  0  0  0
   17.6240   11.9330   47.2020 C   0  0  0  0  0  0  0  0  0  0  0  0
   19.0500   11.2180   44.4410 O   0  0  0  0  0  0  0  0  0  0  0  0
   17.3630   10.4860   46.9150 C   0  0  0  0  0  0  0  0  0  0  0  0
   17.1540   10.2920   45.5600 O   0  0  0  0  0  0  0  0  0  0  0  0
   19.1400    9.0350   45.4310 O   0  5  0  0  0  0  0  0  0  0  0  0
   16.2100    9.9330   47.7240 C   0  0  0  0  0  0  0  0  0  0  0  0
   16.7060    9.5750   48.9620 O   0  0  0  0  0  0  0  0  0  0  0  0
   17.8930    9.4350   43.4430 O   0  0  0  0  0  0  0  0  0  0  0  0
   15.0630   10.8830   47.9300 C   0  0  0  0  0  0  0  0  0  0  0  0
   14.1030   10.7840   46.9200 O   0  0  0  0  0  0  0  0  0  0  0  0
   15.5670   12.2920   48.0830 C   0  0  0  0  0  0  0  0  0  0  0  0
   16.4470   12.6340   47.0830 O   0  0  0  0  0  0  0  0  0  0  0  0
   14.4150   13.2460   48.0330 C   0  0  0  0  0  0  0  0  0  0  0  0
   14.2960   14.0500   47.0730 O   0  0  0  0  0  0  0  0  0  0  0  0
   13.5660   13.2510   48.9640 O   0  0  0  0  0  0  0  0  0  0  0  0
   18.3160   10.0050   44.6990 S   0  0  0  0  0  0  0  0  0  0  0  0
   17.3350    8.8770   48.8270 H   0  0  0  0  0  0  0  0  0  0  0  0
   13.0270    9.8900   47.3020 C   0  0  0  0  0  0  0  0  0  0  0  0
   12.7130    5.9980   46.0600 O   0  0  0  0  0  0  0  0  0  0  0  0
   13.9480    6.7420   46.2260 S   0  0  0  0  0  0  0  0  0  0  0  0
   12.6060    8.9730   46.1500 C   0  0  0  0  0  0  0  0  0  0  0  0
   13.7310    8.2120   45.6380 N   0  0  0  0  0  0  0  0  0  0  0  0
   15.0280    6.1140   45.4710 O   0  0  0  0  0  0  0  0  0  0  0  0
    8.5440   11.5570   49.1720 S   0  0  0  0  0  0  0  0  0  0  0  0
   11.9560    9.7560   45.0130 C   0  0  0  0  0  0  0  0  0  0  0  0
   11.4830    8.8560   44.0290 O   0  0  0  0  0  0  0  0  0  0  0  0
   14.3010    6.9390   47.6300 O   0  0  0  0  0  0  0  0  0  0  0  0
   10.8090   10.6030   45.5420 C   0  0  0  0  0  0  0  0  0  0  0  0
   10.4020   11.4750   44.4970 O   0  0  0  0  0  0  0  0  0  0  0  0
    7.1760   11.0570   49.1460 O   0  0  0  0  0  0  0  0  0  0  0  0
   11.3210   11.4130   46.7340 C   0  0  0  0  0  0  0  0  0  0  0  0
   11.8720   10.5800   47.7370 O   0  0  0  0  0  0  0  0  0  0  0  0
    9.4270   10.7590   50.0110 O   0  5  0  0  0  0  0  0  0  0  0  0
   10.2220   12.2520   47.3730 C   0  0  0  0  0  0  0  0  0  0  0  0
    9.1190   11.4430   47.7160 O   0  0  0  0  0  0  0  0  0  0  0  0
    8.6100   12.9630   49.5510 O   0  0  0  0  0  0  0  0  0  0  0  0
   14.3580    8.5990   44.9320 H   0  0  0  0  0  0  0  0  0  0  0  0
   11.5720    7.9650   44.3440 H   0  0  0  0  0  0  0  0  0  0  0  0
    9.0090   11.3530   44.1400 C   0  0  0  0  0  0  0  0  0  0  0  0
    8.7960   11.8090   42.7280 C   0  0  0  0  0  0  0  0  0  0  0  0
    9.2710   13.1000   42.5510 O   0  0  0  0  0  0  0  0  0  0  0  0
    7.3490   11.7920   42.3790 C   0  0  0  0  0  0  0  0  0  0  0  0
    7.2400   12.0570   41.0260 O   0  0  0  0  0  0  0  0  0  0  0  0
    6.7230   10.4750   42.6940 C   0  0  0  0  0  0  0  0  0  0  0  0
    5.3340   10.6060   42.6950 O   0  0  0  0  0  0  0  0  0  0  0  0
    7.1430   10.0160   44.0730 C   0  0  0  0  0  0  0  0  0  0  0  0
    8.5300   10.0560   44.2330 O   0  0  0  0  0  0  0  0  0  0  0  0
    6.6280    8.6510   44.4160 C   0  0  0  0  0  0  0  0  0  0  0  0
    6.9320    7.6700   43.6920 O   0  0  0  0  0  0  0  0  0  0  0  0
    5.8780    8.4820   45.4130 O   0  0  0  0  0  0  0  0  0  0  0  0
    8.7250   13.7260   43.0110 H   0  0  0  0  0  0  0  0  0  0  0  0
    8.0970   12.3240   40.7130 H   0  0  0  0  0  0  0  0  0  0  0  0
    4.6760    9.9210   41.6040 C   0  0  0  0  0  0  0  0  0  0  0  0
    3.4920   10.7270   41.1830 C   0  0  0  0  0  0  0  0  0  0  0  0
    3.8990   12.0750   40.9310 N   0  0  0  0  0  0  0  0  0  0  0  0
    2.5000   10.7210   42.2940 C   0  0  0  0  0  0  0  0  0  0  0  0
    1.3920   11.4640   41.9490 O   0  0  0  0  0  0  0  0  0  0  0  0
    2.1130    9.3120   42.5730 C   0  0  0  0  0  0  0  0  0  0  0  0
    1.2090    9.2830   43.6110 O   0  0  0  0  0  0  0  0  0  0  0  0
    3.3530    8.5710   42.9540 C   0  0  0  0  0  0  0  0  0  0  0  0
    4.2550    8.6410   41.9120 O   0  0  0  0  0  0  0  0  0  0  0  0
    3.0550    7.1460   43.3020 C   0  0  0  0  0  0  0  0  0  0  0  0
    2.0080    6.6410   42.5550 O   0  0  0  0  0  0  0  0  0  0  0  0
    3.3630   12.7960   39.8200 C   0  0  0  0  0  0  0  0  0  0  0  0
    2.5510   12.2640   39.0750 O   0  0  0  0  0  0  0  0  0  0  0  0
   -0.3790    6.6620   42.7920 O   0  0  0  0  0  0  0  0  0  0  0  0
    3.8040   14.2010   39.5790 C   0  0  0  0  0  0  0  0  0  0  0  0
    1.0530    6.2690   44.6620 O   0  5  0  0  0  0  0  0  0  0  0  0
    0.7960    4.6250   42.9300 O   0  0  0  0  0  0  0  0  0  0  0  0
    0.8400    6.0360   43.2340 S   0  0  0  0  0  0  0  0  0  0  0  0
    4.5760   12.5240   41.5470 H   0  0  0  0  0  0  0  0  0  0  0  0
    0.6320   10.9010   41.8620 H   0  0  0  0  0  0  0  0  0  0  0  0
    0.3640    8.9940   43.2860 H   0  0  0  0  0  0  0  0  0  0  0  0
  1  9  1  0  0  0  0
  1  2  1  0  0  0  0
  2  3  1  0  0  0  0
  3 13  1  0  0  0  0
  2  4  1  0  0  0  0
  4  5  1  0  0  0  0
  5 14  1  0  0  0  0
  4  6  1  0  0  0  0
  6  8  1  0  0  0  0
  6  7  1  0  0  0  0
  8 10  1  0  0  0  0
  8  9  1  0  0  0  0
 10 11  4  0  0  0  0
 10 12  4  0  0  0  0
  7 15  1  0  0  0  0
 15 29  1  0  0  0  0
 16 17  1  0  0  0  0
 17 20  2  0  0  0  0
 17 24  2  0  0  0  0
 15 18  1  0  0  0  0
 18 19  1  0  0  0  0
 17 19  1  0  0  0  0
 19 34  1  0  0  0  0
 21 27  1  0  0  0  0
 21 30  1  0  0  0  0
 21 33  2  0  0  0  0
 18 22  1  0  0  0  0
 22 23  1  0  0  0  0
 23 35  1  0  0  0  0
 22 25  1  0  0  0  0
 25 28  1  0  0  0  0
 25 26  1  0  0  0  0
 28 31  1  0  0  0  0
 28 29  1  0  0  0  0
 31 32  1  0  0  0  0
 21 32  1  0  0  0  0
 26 36  1  0  0  0  0
 36 47  1  0  0  0  0
 36 38  1  0  0  0  0
 38 39  1  0  0  0  0
 39 51  1  0  0  0  0
 38 41  1  0  0  0  0
 41 42  1  0  0  0  0
 42 52  1  0  0  0  0
 41 44  1  0  0  0  0
 44 46  1  0  0  0  0
 44 45  1  0  0  0  0
 46 48  1  0  0  0  0
 46 47  1  0  0  0  0
 48 49  4  0  0  0  0
 48 50  4  0  0  0  0
 37 51  1  0  0  0  0
 40 51  1  0  0  0  0
 43 51  2  0  0  0  0
 45 53  1  0  0  0  0
 53 56  1  0  0  0  0
 53 67  1  0  0  0  0
 54 55  1  0  0  0  0
 55 58  2  0  0  0  0
 55 62  2  0  0  0  0
 56 57  1  0  0  0  0
 56 60  1  0  0  0  0
 55 57  1  0  0  0  0
 57 72  1  0  0  0  0
 59 65  1  0  0  0  0
 59 68  1  0  0  0  0
 59 71  2  0  0  0  0
 60 61  1  0  0  0  0
 60 63  1  0  0  0  0
 61 73  1  0  0  0  0
 63 64  1  0  0  0  0
 63 66  1  0  0  0  0
 64 74  1  0  0  0  0
 66 67  1  0  0  0  0
 66 69  1  0  0  0  0
 69 70  1  0  0  0  0
 59 70  1  0  0  0  0
 74 75  1  0  0  0  0
 74 82  1  0  0  0  0
 75 76  1  0  0  0  0
 75 77  1  0  0  0  0
 76 86  1  0  0  0  0
 77 78  1  0  0  0  0
 77 79  1  0  0  0  0
 78 87  1  0  0  0  0
 79 80  1  0  0  0  0
 79 81  1  0  0  0  0
 80 88  1  0  0  0  0
 81 82  1  0  0  0  0
 81 83  1  0  0  0  0
 83 84  4  0  0  0  0
 83 85  4  0  0  0  0
 88 89  1  0  0  0  0
 88 96  1  0  0  0  0
 89 90  1  0  0  0  0
 89 91  1  0  0  0  0
 90 99  1  0  0  0  0
 90106  1  0  0  0  0
 91 92  1  0  0  0  0
 91 93  1  0  0  0  0
 92107  1  0  0  0  0
 93 94  1  0  0  0  0
 93 95  1  0  0  0  0
 94108  1  0  0  0  0
 95 96  1  0  0  0  0
 95 97  1  0  0  0  0
 97 98  1  0  0  0  0
 98105  1  0  0  0  0
 99100  2  0  0  0  0
 99102  1  0  0  0  0
101105  1  0  0  0  0
103105  1  0  0  0  0
104105  2  0  0  0  0
M  END
$$$$
Run_1_Vina
  PyMOL2.5          3D                             0

108113  0  0  0  0  0  0  0  0999 V2000
   20.0770   10.9870   45.9440 C   0  0  0  0  0  0  0  0  0  0  0  0
   19.4280   10.9010   47.2820 C   0  0  0  0  0  0  0  0  0  0  0  0
   20.1910   10.0730   48.0830 O   0  0  0  0  0  0  0  0  0  0  0  0
   18.0470   10.3510   47.1840 C   0  0  0  0  0  0  0  0  0  0  0  0
   17.4350   10.5200   48.4100 O   0  0  0  0  0  0  0  0  0  0  0  0
   17.2460   11.0390   46.1280 C   0  0  0  0  0  0  0  0  0  0  0  0
   16.1080   10.2930   45.8640 O   0  0  0  0  0  0  0  0  0  0  0  0
   18.0450   11.1580   44.8560 C   0  0  0  0  0  0  0  0  0  0  0  0
   19.2760   11.7450   45.1160 O   0  0  0  0  0  0  0  0  0  0  0  0
   17.3360   11.9640   43.8090 C   0  0  0  0  0  0  0  0  0  0  0  0
   17.7920   12.0080   42.6380 O   0  0  0  0  0  0  0  0  0  0  0  0
   16.2900   12.6020   44.1050 O   0  0  0  0  0  0  0  0  0  0  0  0
   21.0650   10.0240   47.7150 H   0  0  0  0  0  0  0  0  0  0  0  0
   17.4690    9.6880   48.8700 H   0  0  0  0  0  0  0  0  0  0  0  0
   15.3370   10.0140   47.0540 C   0  0  0  0  0  0  0  0  0  0  0  0
   14.4650    6.3470   47.6460 O   0  0  0  0  0  0  0  0  0  0  0  0
   14.2680    6.5010   46.2080 S   0  0  0  0  0  0  0  0  0  0  0  0
   14.1480    9.1280   46.6770 C   0  0  0  0  0  0  0  0  0  0  0  0
   14.5780    8.0250   45.8380 N   0  0  0  0  0  0  0  0  0  0  0  0
   12.8760    6.2490   45.8460 O   0  0  0  0  0  0  0  0  0  0  0  0
   13.7220   13.3230   50.0940 S   0  0  0  0  0  0  0  0  0  0  0  0
   13.0940    9.9080   45.8880 C   0  0  0  0  0  0  0  0  0  0  0  0
   11.9260    9.1300   45.7780 O   0  0  0  0  0  0  0  0  0  0  0  0
   15.2120    5.7060   45.4290 O   0  0  0  0  0  0  0  0  0  0  0  0
   12.7550   11.2660   46.4950 C   0  0  0  0  0  0  0  0  0  0  0  0
   12.0030   11.9880   45.5270 O   0  0  0  0  0  0  0  0  0  0  0  0
   13.1790   14.6510   50.3710 O   0  0  0  0  0  0  0  0  0  0  0  0
   14.0530   11.9900   46.8500 C   0  0  0  0  0  0  0  0  0  0  0  0
   14.8670   11.1830   47.6960 O   0  0  0  0  0  0  0  0  0  0  0  0
   12.6680   12.3270   49.9440 O   0  5  0  0  0  0  0  0  0  0  0  0
   13.8010   13.3400   47.5150 C   0  0  0  0  0  0  0  0  0  0  0  0
   14.4980   13.4200   48.7390 O   0  0  0  0  0  0  0  0  0  0  0  0
   14.6810   12.9020   51.1070 O   0  0  0  0  0  0  0  0  0  0  0  0
   15.0960    8.2290   44.9820 H   0  0  0  0  0  0  0  0  0  0  0  0
   11.3110    9.3890   46.4540 H   0  0  0  0  0  0  0  0  0  0  0  0
   10.6960   12.3940   46.0020 C   0  0  0  0  0  0  0  0  0  0  0  0
   10.6130   16.3070   45.8640 O   0  0  0  0  0  0  0  0  0  0  0  0
   10.3010   13.6910   45.3660 C   0  0  0  0  0  0  0  0  0  0  0  0
    9.3170   14.3160   46.1130 O   0  0  0  0  0  0  0  0  0  0  0  0
    8.3120   16.2330   45.1870 O   0  5  0  0  0  0  0  0  0  0  0  0
    9.8610   13.5210   43.9280 C   0  0  0  0  0  0  0  0  0  0  0  0
   10.9980   13.5090   43.1440 O   0  0  0  0  0  0  0  0  0  0  0  0
    8.9200   16.2420   47.4890 O   0  0  0  0  0  0  0  0  0  0  0  0
    9.0770   12.2700   43.6440 C   0  0  0  0  0  0  0  0  0  0  0  0
    7.7020   12.4550   43.8040 O   0  0  0  0  0  0  0  0  0  0  0  0
    9.5860   11.1290   44.4830 C   0  0  0  0  0  0  0  0  0  0  0  0
    9.6910   11.4750   45.8110 O   0  0  0  0  0  0  0  0  0  0  0  0
    8.6450    9.9700   44.3790 C   0  0  0  0  0  0  0  0  0  0  0  0
    7.8170    9.7380   45.2980 O   0  0  0  0  0  0  0  0  0  0  0  0
    8.6890    9.2170   43.3700 O   0  0  0  0  0  0  0  0  0  0  0  0
    9.3050   15.7890   46.1750 S   0  0  0  0  0  0  0  0  0  0  0  0
   11.6740   13.0510   43.6290 H   0  0  0  0  0  0  0  0  0  0  0  0
    7.0400   12.6100   42.5230 C   0  0  0  0  0  0  0  0  0  0  0  0
    5.3050   17.0240   43.0740 O   0  0  0  0  0  0  0  0  0  0  0  0
    6.2560   16.3830   42.1840 S   0  0  0  0  0  0  0  0  0  0  0  0
    6.0810   13.8050   42.5130 C   0  0  0  0  0  0  0  0  0  0  0  0
    6.7610   15.0350   42.8770 N   0  0  0  0  0  0  0  0  0  0  0  0
    7.4180   17.2400   41.9750 O   0  0  0  0  0  0  0  0  0  0  0  0
    5.2490    7.5080   43.6150 S   0  0  0  0  0  0  0  0  0  0  0  0
    4.8910   13.5820   43.4410 C   0  0  0  0  0  0  0  0  0  0  0  0
    3.9800   14.6570   43.3100 O   0  0  0  0  0  0  0  0  0  0  0  0
    5.6490   15.9620   40.9230 O   0  0  0  0  0  0  0  0  0  0  0  0
    4.2000   12.2680   43.1090 C   0  0  0  0  0  0  0  0  0  0  0  0
    3.2610   12.0050   44.1410 O   0  0  0  0  0  0  0  0  0  0  0  0
    4.0190    6.9830   43.0370 O   0  0  0  0  0  0  0  0  0  0  0  0
    5.2600   11.1660   43.0680 C   0  0  0  0  0  0  0  0  0  0  0  0
    6.2950   11.4670   42.1510 O   0  0  0  0  0  0  0  0  0  0  0  0
    6.3780    6.6000   43.4780 O   0  5  0  0  0  0  0  0  0  0  0  0
    4.6710    9.8160   42.6810 C   0  0  0  0  0  0  0  0  0  0  0  0
    5.6390    8.7990   42.8110 O   0  0  0  0  0  0  0  0  0  0  0  0
    5.0770    7.9050   45.0070 O   0  0  0  0  0  0  0  0  0  0  0  0
    7.5290   15.0390   43.5480 H   0  0  0  0  0  0  0  0  0  0  0  0
    4.4590   15.4580   43.1310 H   0  0  0  0  0  0  0  0  0  0  0  0
    3.7450   12.3070   45.4670 C   0  0  0  0  0  0  0  0  0  0  0  0
    2.7080   13.0670   46.2350 C   0  0  0  0  0  0  0  0  0  0  0  0
    2.3230   14.2080   45.5460 O   0  0  0  0  0  0  0  0  0  0  0  0
    3.2300   13.4800   47.5670 C   0  0  0  0  0  0  0  0  0  0  0  0
    2.1790   14.0220   48.2820 O   0  0  0  0  0  0  0  0  0  0  0  0
    3.8130   12.3250   48.3110 C   0  0  0  0  0  0  0  0  0  0  0  0
    4.5960   12.7950   49.3650 O   0  0  0  0  0  0  0  0  0  0  0  0
    4.7070   11.5160   47.3970 C   0  0  0  0  0  0  0  0  0  0  0  0
    4.0620   11.1770   46.2050 O   0  0  0  0  0  0  0  0  0  0  0  0
    5.2500   10.2820   48.0540 C   0  0  0  0  0  0  0  0  0  0  0  0
    6.4900   10.1520   48.2020 O   0  0  0  0  0  0  0  0  0  0  0  0
    4.4750    9.3690   48.4390 O   0  0  0  0  0  0  0  0  0  0  0  0
    1.9600   14.8540   46.1400 H   0  0  0  0  0  0  0  0  0  0  0  0
    1.9040   14.8150   47.8360 H   0  0  0  0  0  0  0  0  0  0  0  0
    5.3320   14.0030   49.0600 C   0  0  0  0  0  0  0  0  0  0  0  0
    6.6350   13.9600   49.7890 C   0  0  0  0  0  0  0  0  0  0  0  0
    7.2990   12.7250   49.5050 N   0  0  0  0  0  0  0  0  0  0  0  0
    6.3590   14.0360   51.2500 C   0  0  0  0  0  0  0  0  0  0  0  0
    7.5390   13.9910   51.9620 O   0  0  0  0  0  0  0  0  0  0  0  0
    5.6360   15.3060   51.5280 C   0  0  0  0  0  0  0  0  0  0  0  0
    5.3550   15.3880   52.8730 O   0  0  0  0  0  0  0  0  0  0  0  0
    4.3660   15.2820   50.7410 C   0  0  0  0  0  0  0  0  0  0  0  0
    4.6720   15.1680   49.4010 O   0  0  0  0  0  0  0  0  0  0  0  0
    3.5410   16.5050   50.9950 C   0  0  0  0  0  0  0  0  0  0  0  0
    4.3250   17.6310   51.1610 O   0  0  0  0  0  0  0  0  0  0  0  0
    8.7160   12.6900   49.3290 C   0  0  0  0  0  0  0  0  0  0  0  0
    9.3720   13.7180   49.4190 O   0  0  0  0  0  0  0  0  0  0  0  0
    3.5720   19.7030   52.1050 O   0  0  0  0  0  0  0  0  0  0  0  0
    9.3840   11.3890   49.0340 C   0  0  0  0  0  0  0  0  0  0  0  0
    5.5700   18.6430   52.8690 O   0  5  0  0  0  0  0  0  0  0  0  0
    3.4100   17.7160   53.3580 O   0  0  0  0  0  0  0  0  0  0  0  0
    4.2020   18.4410   52.3940 S   0  0  0  0  0  0  0  0  0  0  0  0
    6.7570   11.8640   49.4280 H   0  0  0  0  0  0  0  0  0  0  0  0
    7.5320   14.6420   52.6540 H   0  0  0  0  0  0  0  0  0  0  0  0
    5.6460   16.2280   53.2070 H   0  0  0  0  0  0  0  0  0  0  0  0
  1  9  1  0  0  0  0
  1  2  1  0  0  0  0
  2  3  1  0  0  0  0
  3 13  1  0  0  0  0
  2  4  1  0  0  0  0
  4  5  1  0  0  0  0
  5 14  1  0  0  0  0
  4  6  1  0  0  0  0
  6  8  1  0  0  0  0
  6  7  1  0  0  0  0
  8 10  1  0  0  0  0
  8  9  1  0  0  0  0
 10 11  4  0  0  0  0
 10 12  4  0  0  0  0
  7 15  1  0  0  0  0
 15 29  1  0  0  0  0
 16 17  1  0  0  0  0
 17 20  2  0  0  0  0
 17 24  2  0  0  0  0
 15 18  1  0  0  0  0
 18 19  1  0  0  0  0
 17 19  1  0  0  0  0
 19 34  1  0  0  0  0
 21 27  1  0  0  0  0
 21 30  1  0  0  0  0
 21 33  2  0  0  0  0
 18 22  1  0  0  0  0
 22 23  1  0  0  0  0
 23 35  1  0  0  0  0
 22 25  1  0  0  0  0
 25 28  1  0  0  0  0
 25 26  1  0  0  0  0
 28 31  1  0  0  0  0
 28 29  1  0  0  0  0
 31 32  1  0  0  0  0
 21 32  1  0  0  0  0
 26 36  1  0  0  0  0
 36 47  1  0  0  0  0
 36 38  1  0  0  0  0
 38 39  1  0  0  0  0
 39 51  1  0  0  0  0
 38 41  1  0  0  0  0
 41 42  1  0  0  0  0
 42 52  1  0  0  0  0
 41 44  1  0  0  0  0
 44 46  1  0  0  0  0
 44 45  1  0  0  0  0
 46 48  1  0  0  0  0
 46 47  1  0  0  0  0
 48 49  4  0  0  0  0
 48 50  4  0  0  0  0
 37 51  1  0  0  0  0
 40 51  1  0  0  0  0
 43 51  2  0  0  0  0
 45 53  1  0  0  0  0
 53 56  1  0  0  0  0
 53 67  1  0  0  0  0
 54 55  1  0  0  0  0
 55 58  2  0  0  0  0
 55 62  2  0  0  0  0
 56 57  1  0  0  0  0
 56 60  1  0  0  0  0
 55 57  1  0  0  0  0
 57 72  1  0  0  0  0
 59 65  1  0  0  0  0
 59 68  1  0  0  0  0
 59 71  2  0  0  0  0
 60 61  1  0  0  0  0
 60 63  1  0  0  0  0
 61 73  1  0  0  0  0
 63 64  1  0  0  0  0
 63 66  1  0  0  0  0
 64 74  1  0  0  0  0
 66 67  1  0  0  0  0
 66 69  1  0  0  0  0
 69 70  1  0  0  0  0
 59 70  1  0  0  0  0
 74 75  1  0  0  0  0
 74 82  1  0  0  0  0
 75 76  1  0  0  0  0
 75 77  1  0  0  0  0
 76 86  1  0  0  0  0
 77 78  1  0  0  0  0
 77 79  1  0  0  0  0
 78 87  1  0  0  0  0
 79 80  1  0  0  0  0
 79 81  1  0  0  0  0
 80 88  1  0  0  0  0
 81 82  1  0  0  0  0
 81 83  1  0  0  0  0
 83 84  4  0  0  0  0
 83 85  4  0  0  0  0
 88 89  1  0  0  0  0
 88 96  1  0  0  0  0
 89 90  1  0  0  0  0
 89 91  1  0  0  0  0
 90 99  1  0  0  0  0
 90106  1  0  0  0  0
 91 92  1  0  0  0  0
 91 93  1  0  0  0  0
 92107  1  0  0  0  0
 93 94  1  0  0  0  0
 93 95  1  0  0  0  0
 94108  1  0  0  0  0
 95 96  1  0  0  0  0
 95 97  1  0  0  0  0
 97 98  1  0  0  0  0
 98105  1  0  0  0  0
 99100  2  0  0  0  0
 99102  1  0  0  0  0
101105  1  0  0  0  0
103105  1  0  0  0  0
104105  2  0  0  0  0
M  END
$$$$
Run_1_Vina
  PyMOL2.5          3D                             0

108113  0  0  0  0  0  0  0  0999 V2000
    4.1670   12.9400   40.2760 C   0  0  0  0  0  0  0  0  0  0  0  0
    5.3610   12.0560   40.3720 C   0  0  0  0  0  0  0  0  0  0  0  0
    5.0100   10.8000   39.9150 O   0  0  0  0  0  0  0  0  0  0  0  0
    5.8480   11.9480   41.7750 C   0  0  0  0  0  0  0  0  0  0  0  0
    7.0750   11.3140   41.7520 O   0  0  0  0  0  0  0  0  0  0  0  0
    5.9900   13.2860   42.4220 C   0  0  0  0  0  0  0  0  0  0  0  0
    6.1300   13.1160   43.7910 O   0  0  0  0  0  0  0  0  0  0  0  0
    4.7650   14.1250   42.1680 C   0  0  0  0  0  0  0  0  0  0  0  0
    4.4880   14.1710   40.8080 O   0  0  0  0  0  0  0  0  0  0  0  0
    4.9160   15.5260   42.6790 C   0  0  0  0  0  0  0  0  0  0  0  0
    4.0270   16.0240   43.4170 O   0  0  0  0  0  0  0  0  0  0  0  0
    5.9280   16.2080   42.3620 O   0  0  0  0  0  0  0  0  0  0  0  0
    5.7870   10.3820   39.5630 H   0  0  0  0  0  0  0  0  0  0  0  0
    7.4850   11.4400   42.6000 H   0  0  0  0  0  0  0  0  0  0  0  0
    5.1860   12.1640   44.3330 C   0  0  0  0  0  0  0  0  0  0  0  0
    2.1070   14.3500   45.4590 O   0  0  0  0  0  0  0  0  0  0  0  0
    3.1590   14.5420   46.4520 S   0  0  0  0  0  0  0  0  0  0  0  0
    4.8330   12.5780   45.7620 C   0  0  0  0  0  0  0  0  0  0  0  0
    4.5230   13.9950   45.8230 N   0  0  0  0  0  0  0  0  0  0  0  0
    2.8930   13.7510   47.6490 O   0  0  0  0  0  0  0  0  0  0  0  0
    9.5200    8.1660   43.7270 S   0  0  0  0  0  0  0  0  0  0  0  0
    5.9980   12.3320   46.7240 C   0  0  0  0  0  0  0  0  0  0  0  0
    5.5500   12.4940   48.0480 O   0  0  0  0  0  0  0  0  0  0  0  0
    3.3980   15.9520   46.7430 O   0  0  0  0  0  0  0  0  0  0  0  0
    6.6470   10.9620   46.5610 C   0  0  0  0  0  0  0  0  0  0  0  0
    7.8680   10.9800   47.2910 O   0  0  0  0  0  0  0  0  0  0  0  0
   10.4140    7.7550   44.8090 O   0  0  0  0  0  0  0  0  0  0  0  0
    6.8870   10.6970   45.0750 C   0  0  0  0  0  0  0  0  0  0  0  0
    5.6770   10.8380   44.3350 O   0  0  0  0  0  0  0  0  0  0  0  0
    8.5340    7.1370   43.4200 O   0  5  0  0  0  0  0  0  0  0  0  0
    7.4860    9.3180   44.8210 C   0  0  0  0  0  0  0  0  0  0  0  0
    8.7580    9.4400   44.2220 O   0  0  0  0  0  0  0  0  0  0  0  0
   10.2530    8.5450   42.5270 O   0  0  0  0  0  0  0  0  0  0  0  0
    5.1990   14.6630   45.4520 H   0  0  0  0  0  0  0  0  0  0  0  0
    6.2780   12.7700   48.5940 H   0  0  0  0  0  0  0  0  0  0  0  0
    8.5080   12.2800   47.3080 C   0  0  0  0  0  0  0  0  0  0  0  0
    7.5800   15.5440   48.8810 O   0  0  0  0  0  0  0  0  0  0  0  0
    9.1070   12.5370   48.6570 C   0  0  0  0  0  0  0  0  0  0  0  0
    9.3060   13.8930   48.8460 O   0  0  0  0  0  0  0  0  0  0  0  0
    7.4920   13.6290   50.3230 O   0  5  0  0  0  0  0  0  0  0  0  0
   10.3910   11.7670   48.8770 C   0  0  0  0  0  0  0  0  0  0  0  0
   10.0460   10.4960   49.2970 O   0  0  0  0  0  0  0  0  0  0  0  0
    9.0490   15.3880   50.7070 O   0  0  0  0  0  0  0  0  0  0  0  0
   11.2750   11.6410   47.6670 C   0  0  0  0  0  0  0  0  0  0  0  0
   12.1900   12.6920   47.5660 O   0  0  0  0  0  0  0  0  0  0  0  0
   10.4440   11.5060   46.4200 C   0  0  0  0  0  0  0  0  0  0  0  0
    9.4690   12.4730   46.3440 O   0  0  0  0  0  0  0  0  0  0  0  0
   11.3210   11.6370   45.2150 C   0  0  0  0  0  0  0  0  0  0  0  0
   12.0180   10.6630   44.8270 O   0  0  0  0  0  0  0  0  0  0  0  0
   11.3710   12.7310   44.5930 O   0  0  0  0  0  0  0  0  0  0  0  0
    8.3530   14.6370   49.6910 S   0  0  0  0  0  0  0  0  0  0  0  0
    9.5100   10.5890   50.0750 H   0  0  0  0  0  0  0  0  0  0  0  0
   13.3020   12.5100   48.4790 C   0  0  0  0  0  0  0  0  0  0  0  0
   13.6010   17.0650   49.7050 O   0  0  0  0  0  0  0  0  0  0  0  0
   14.2870   15.7860   49.7310 S   0  0  0  0  0  0  0  0  0  0  0  0
   14.3640   13.6020   48.3150 C   0  0  0  0  0  0  0  0  0  0  0  0
   13.7940   14.9270   48.4780 N   0  0  0  0  0  0  0  0  0  0  0  0
   13.9440   15.0470   50.9420 O   0  0  0  0  0  0  0  0  0  0  0  0
   14.1130    7.2580   46.7930 S   0  0  0  0  0  0  0  0  0  0  0  0
   15.0670   13.5080   46.9640 C   0  0  0  0  0  0  0  0  0  0  0  0
   16.1120   14.4590   46.9070 O   0  0  0  0  0  0  0  0  0  0  0  0
   15.7320   15.9200   49.5600 O   0  0  0  0  0  0  0  0  0  0  0  0
   15.6220   12.1080   46.7520 C   0  0  0  0  0  0  0  0  0  0  0  0
   16.0490   12.0160   45.4010 O   0  0  0  0  0  0  0  0  0  0  0  0
   14.7330    7.0430   48.0940 O   0  0  0  0  0  0  0  0  0  0  0  0
   14.5010   11.1020   47.0190 C   0  0  0  0  0  0  0  0  0  0  0  0
   13.9480   11.2630   48.3120 O   0  0  0  0  0  0  0  0  0  0  0  0
   12.7930    6.6550   46.6830 O   0  5  0  0  0  0  0  0  0  0  0  0
   14.9780    9.6610   46.8910 C   0  0  0  0  0  0  0  0  0  0  0  0
   13.8930    8.8030   46.6220 O   0  0  0  0  0  0  0  0  0  0  0  0
   14.9680    6.8220   45.6960 O   0  0  0  0  0  0  0  0  0  0  0  0
   13.1070   15.2950   47.8200 H   0  0  0  0  0  0  0  0  0  0  0  0
   15.9690   15.0440   46.1720 H   0  0  0  0  0  0  0  0  0  0  0  0
   17.3970   11.5250   45.2440 C   0  0  0  0  0  0  0  0  0  0  0  0
   18.0900   12.2630   44.1390 C   0  0  0  0  0  0  0  0  0  0  0  0
   17.3630   12.1810   42.9610 O   0  0  0  0  0  0  0  0  0  0  0  0
   19.4450   11.6980   43.8920 C   0  0  0  0  0  0  0  0  0  0  0  0
   20.0870   12.5230   42.9880 O   0  0  0  0  0  0  0  0  0  0  0  0
   20.2390   11.6020   45.1510 C   0  0  0  0  0  0  0  0  0  0  0  0
   21.3320   10.7590   44.9520 O   0  0  0  0  0  0  0  0  0  0  0  0
   19.3930   11.0080   46.2560 C   0  0  0  0  0  0  0  0  0  0  0  0
   18.1690   11.6690   46.3860 O   0  0  0  0  0  0  0  0  0  0  0  0
   20.0990   10.9730   47.5780 C   0  0  0  0  0  0  0  0  0  0  0  0
   20.3250    9.8690   48.1330 O   0  0  0  0  0  0  0  0  0  0  0  0
   20.4500   12.0410   48.1440 O   0  0  0  0  0  0  0  0  0  0  0  0
   17.4710   11.3280   42.5560 H   0  0  0  0  0  0  0  0  0  0  0  0
   19.6060   12.4850   42.1690 H   0  0  0  0  0  0  0  0  0  0  0  0
   22.5300   11.1680   45.6530 C   0  0  0  0  0  0  0  0  0  0  0  0
   23.3710   11.9760   44.7210 C   0  0  0  0  0  0  0  0  0  0  0  0
   22.5800   13.0240   44.1520 N   0  0  0  0  0  0  0  0  0  0  0  0
   23.8510   11.0850   43.6280 C   0  0  0  0  0  0  0  0  0  0  0  0
   24.6270   11.7950   42.7380 O   0  0  0  0  0  0  0  0  0  0  0  0
   24.6400    9.9790   44.2340 C   0  0  0  0  0  0  0  0  0  0  0  0
   25.0790    9.1320   43.2420 O   0  0  0  0  0  0  0  0  0  0  0  0
   23.7390    9.2440   45.1720 C   0  0  0  0  0  0  0  0  0  0  0  0
   23.2870   10.1190   46.1380 O   0  0  0  0  0  0  0  0  0  0  0  0
   24.4340    8.0760   45.7980 C   0  0  0  0  0  0  0  0  0  0  0  0
   25.1350    8.4400   46.9320 O   0  0  0  0  0  0  0  0  0  0  0  0
   22.6570   14.3510   44.6730 C   0  0  0  0  0  0  0  0  0  0  0  0
   23.4000   14.6020   45.6110 O   0  0  0  0  0  0  0  0  0  0  0  0
   27.0620    8.4630   48.3590 O   0  0  0  0  0  0  0  0  0  0  0  0
   21.8210   15.4260   44.0610 C   0  0  0  0  0  0  0  0  0  0  0  0
   27.2520    8.8300   46.0080 O   0  5  0  0  0  0  0  0  0  0  0  0
   26.7160    6.6600   46.8840 O   0  0  0  0  0  0  0  0  0  0  0  0
   26.5660    8.0850   47.0620 S   0  0  0  0  0  0  0  0  0  0  0  0
   21.9580   12.8210   43.3690 H   0  0  0  0  0  0  0  0  0  0  0  0
   24.0830   12.1930   42.0690 H   0  0  0  0  0  0  0  0  0  0  0  0
   25.1240    9.6060   42.4200 H   0  0  0  0  0  0  0  0  0  0  0  0
  1  9  1  0  0  0  0
  1  2  1  0  0  0  0
  2  3  1  0  0  0  0
  3 13  1  0  0  0  0
  2  4  1  0  0  0  0
  4  5  1  0  0  0  0
  5 14  1  0  0  0  0
  4  6  1  0  0  0  0
  6  8  1  0  0  0  0
  6  7  1  0  0  0  0
  8 10  1  0  0  0  0
  8  9  1  0  0  0  0
 10 11  4  0  0  0  0
 10 12  4  0  0  0  0
  7 15  1  0  0  0  0
 15 29  1  0  0  0  0
 16 17  1  0  0  0  0
 17 20  2  0  0  0  0
 17 24  2  0  0  0  0
 15 18  1  0  0  0  0
 18 19  1  0  0  0  0
 17 19  1  0  0  0  0
 19 34  1  0  0  0  0
 21 27  1  0  0  0  0
 21 30  1  0  0  0  0
 21 33  2  0  0  0  0
 18 22  1  0  0  0  0
 22 23  1  0  0  0  0
 23 35  1  0  0  0  0
 22 25  1  0  0  0  0
 25 28  1  0  0  0  0
 25 26  1  0  0  0  0
 28 31  1  0  0  0  0
 28 29  1  0  0  0  0
 31 32  1  0  0  0  0
 21 32  1  0  0  0  0
 26 36  1  0  0  0  0
 36 47  1  0  0  0  0
 36 38  1  0  0  0  0
 38 39  1  0  0  0  0
 39 51  1  0  0  0  0
 38 41  1  0  0  0  0
 41 42  1  0  0  0  0
 42 52  1  0  0  0  0
 41 44  1  0  0  0  0
 44 46  1  0  0  0  0
 44 45  1  0  0  0  0
 46 48  1  0  0  0  0
 46 47  1  0  0  0  0
 48 49  4  0  0  0  0
 48 50  4  0  0  0  0
 37 51  1  0  0  0  0
 40 51  1  0  0  0  0
 43 51  2  0  0  0  0
 45 53  1  0  0  0  0
 53 56  1  0  0  0  0
 53 67  1  0  0  0  0
 54 55  1  0  0  0  0
 55 58  2  0  0  0  0
 55 62  2  0  0  0  0
 56 57  1  0  0  0  0
 56 60  1  0  0  0  0
 55 57  1  0  0  0  0
 57 72  1  0  0  0  0
 59 65  1  0  0  0  0
 59 68  1  0  0  0  0
 59 71  2  0  0  0  0
 60 61  1  0  0  0  0
 60 63  1  0  0  0  0
 61 73  1  0  0  0  0
 63 64  1  0  0  0  0
 63 66  1  0  0  0  0
 64 74  1  0  0  0  0
 66 67  1  0  0  0  0
 66 69  1  0  0  0  0
 69 70  1  0  0  0  0
 59 70  1  0  0  0  0
 74 75  1  0  0  0  0
 74 82  1  0  0  0  0
 75 76  1  0  0  0  0
 75 77  1  0  0  0  0
 76 86  1  0  0  0  0
 77 78  1  0  0  0  0
 77 79  1  0  0  0  0
 78 87  1  0  0  0  0
 79 80  1  0  0  0  0
 79 81  1  0  0  0  0
 80 88  1  0  0  0  0
 81 82  1  0  0  0  0
 81 83  1  0  0  0  0
 83 84  4  0  0  0  0
 83 85  4  0  0  0  0
 88 89  1  0  0  0  0
 88 96  1  0  0  0  0
 89 90  1  0  0  0  0
 89 91  1  0  0  0  0
 90 99  1  0  0  0  0
 90106  1  0  0  0  0
 91 92  1  0  0  0  0
 91 93  1  0  0  0  0
 92107  1  0  0  0  0
 93 94  1  0  0  0  0
 93 95  1  0  0  0  0
 94108  1  0  0  0  0
 95 96  1  0  0  0  0
 95 97  1  0  0  0  0
 97 98  1  0  0  0  0
 98105  1  0  0  0  0
 99100  2  0  0  0  0
 99102  1  0  0  0  0
101105  1  0  0  0  0
103105  1  0  0  0  0
104105  2  0  0  0  0
M  END
$$$$
Run_1_Vina
  PyMOL2.5          3D                             0

108113  0  0  0  0  0  0  0  0999 V2000
   18.8900   16.1470   42.9590 C   0  0  0  0  0  0  0  0  0  0  0  0
   19.6020   15.4960   44.0930 C   0  0  0  0  0  0  0  0  0  0  0  0
   20.8840   15.1870   43.6820 O   0  0  0  0  0  0  0  0  0  0  0  0
   18.9130   14.2490   44.5270 C   0  0  0  0  0  0  0  0  0  0  0  0
   19.4880   13.8360   45.7130 O   0  0  0  0  0  0  0  0  0  0  0  0
   17.4490   14.4620   44.7300 C   0  0  0  0  0  0  0  0  0  0  0  0
   16.8190   13.2300   44.8150 O   0  0  0  0  0  0  0  0  0  0  0  0
   16.8620   15.2190   43.5670 C   0  0  0  0  0  0  0  0  0  0  0  0
   17.5850   16.3820   43.3380 O   0  0  0  0  0  0  0  0  0  0  0  0
   15.4230   15.5780   43.7870 C   0  0  0  0  0  0  0  0  0  0  0  0
   15.1190   16.4400   44.6530 O   0  0  0  0  0  0  0  0  0  0  0  0
   14.5210   15.0130   43.1130 O   0  0  0  0  0  0  0  0  0  0  0  0
   21.3920   15.9890   43.6550 H   0  0  0  0  0  0  0  0  0  0  0  0
   18.8310   13.3560   46.2050 H   0  0  0  0  0  0  0  0  0  0  0  0
   16.6520   12.7830   46.1810 C   0  0  0  0  0  0  0  0  0  0  0  0
   18.6490    9.9120   47.3430 O   0  0  0  0  0  0  0  0  0  0  0  0
   18.7850   10.0560   45.8980 S   0  0  0  0  0  0  0  0  0  0  0  0
   16.4230   11.2720   46.1820 C   0  0  0  0  0  0  0  0  0  0  0  0
   17.3940   10.6060   45.3330 N   0  0  0  0  0  0  0  0  0  0  0  0
   19.0190    8.7610   45.2670 O   0  0  0  0  0  0  0  0  0  0  0  0
   11.4220   15.8230   46.1680 S   0  0  0  0  0  0  0  0  0  0  0  0
   15.0360   10.9130   45.6440 C   0  0  0  0  0  0  0  0  0  0  0  0
   14.7790    9.5510   45.8890 O   0  0  0  0  0  0  0  0  0  0  0  0
   19.7820   11.0570   45.5310 O   0  0  0  0  0  0  0  0  0  0  0  0
   13.9130   11.7640   46.2270 C   0  0  0  0  0  0  0  0  0  0  0  0
   12.7500   11.5310   45.4430 O   0  0  0  0  0  0  0  0  0  0  0  0
   10.4880   15.8980   45.0460 O   0  0  0  0  0  0  0  0  0  0  0  0
   14.3310   13.2340   46.1870 C   0  0  0  0  0  0  0  0  0  0  0  0
   15.5800   13.4230   46.8450 O   0  0  0  0  0  0  0  0  0  0  0  0
   10.7600   15.3930   47.3940 O   0  5  0  0  0  0  0  0  0  0  0  0
   13.2810   14.1520   46.8060 C   0  0  0  0  0  0  0  0  0  0  0  0
   12.5010   14.7530   45.7960 O   0  0  0  0  0  0  0  0  0  0  0  0
   12.1220   17.0820   46.3810 O   0  0  0  0  0  0  0  0  0  0  0  0
   17.1810   10.4850   44.3420 H   0  0  0  0  0  0  0  0  0  0  0  0
   15.0930    9.3230   46.7570 H   0  0  0  0  0  0  0  0  0  0  0  0
   11.6680   10.9200   46.1870 C   0  0  0  0  0  0  0  0  0  0  0  0
   11.5090   12.4210   48.8020 O   0  0  0  0  0  0  0  0  0  0  0  0
   10.5620   11.9110   46.3880 C   0  0  0  0  0  0  0  0  0  0  0  0
    9.7570   11.5280   47.4460 O   0  0  0  0  0  0  0  0  0  0  0  0
    9.2060   12.8910   49.2850 O   0  5  0  0  0  0  0  0  0  0  0  0
    9.7420   12.1250   45.1340 C   0  0  0  0  0  0  0  0  0  0  0  0
   10.4050   13.0560   44.3580 O   0  0  0  0  0  0  0  0  0  0  0  0
   10.1320   10.7340   49.6800 O   0  0  0  0  0  0  0  0  0  0  0  0
    9.5130   10.8930   44.3040 C   0  0  0  0  0  0  0  0  0  0  0  0
    8.3510   10.2110   44.6740 O   0  0  0  0  0  0  0  0  0  0  0  0
   10.7210    9.9970   44.3460 C   0  0  0  0  0  0  0  0  0  0  0  0
   11.1490    9.7730   45.6340 O   0  0  0  0  0  0  0  0  0  0  0  0
   10.3870    8.6750   43.7310 C   0  0  0  0  0  0  0  0  0  0  0  0
   10.1940    8.5800   42.4920 O   0  0  0  0  0  0  0  0  0  0  0  0
   10.2880    7.6520   44.4610 O   0  0  0  0  0  0  0  0  0  0  0  0
   10.1700   11.8880   48.8150 S   0  0  0  0  0  0  0  0  0  0  0  0
   10.9590   13.5670   44.9360 H   0  0  0  0  0  0  0  0  0  0  0  0
    7.2270   11.1190   44.8070 C   0  0  0  0  0  0  0  0  0  0  0  0
    4.8460   11.5880   47.6560 O   0  0  0  0  0  0  0  0  0  0  0  0
    5.4590   10.3110   47.9750 S   0  0  0  0  0  0  0  0  0  0  0  0
    6.0070   10.4360   45.4320 C   0  0  0  0  0  0  0  0  0  0  0  0
    6.3290    9.8460   46.7190 N   0  0  0  0  0  0  0  0  0  0  0  0
    4.4360    9.2980   48.2090 O   0  0  0  0  0  0  0  0  0  0  0  0
    4.3980   13.1320   40.8220 S   0  0  0  0  0  0  0  0  0  0  0  0
    5.4230    9.3690   44.5100 C   0  0  0  0  0  0  0  0  0  0  0  0
    4.2370    8.8500   45.0790 O   0  0  0  0  0  0  0  0  0  0  0  0
    6.4050   10.4050   49.0840 O   0  0  0  0  0  0  0  0  0  0  0  0
    5.1320    9.9570   43.1380 C   0  0  0  0  0  0  0  0  0  0  0  0
    4.8180    8.8790   42.2680 O   0  0  0  0  0  0  0  0  0  0  0  0
    4.3950   12.6380   39.4510 O   0  0  0  0  0  0  0  0  0  0  0  0
    6.3890   10.6790   42.6500 C   0  0  0  0  0  0  0  0  0  0  0  0
    6.8180   11.6660   43.5680 O   0  0  0  0  0  0  0  0  0  0  0  0
    3.3480   12.5460   41.6420 O   0  5  0  0  0  0  0  0  0  0  0  0
    6.1740   11.3570   41.3020 C   0  0  0  0  0  0  0  0  0  0  0  0
    5.7530   12.6910   41.4810 O   0  0  0  0  0  0  0  0  0  0  0  0
    4.3450   14.5870   40.8830 O   0  0  0  0  0  0  0  0  0  0  0  0
    7.0810    9.1630   46.8170 H   0  0  0  0  0  0  0  0  0  0  0  0
    4.3790    8.6710   46.0010 H   0  0  0  0  0  0  0  0  0  0  0  0
    3.4040    8.6210   42.1390 C   0  0  0  0  0  0  0  0  0  0  0  0
    3.0020    8.6530   40.6960 C   0  0  0  0  0  0  0  0  0  0  0  0
    3.3710    9.8540   40.1090 O   0  0  0  0  0  0  0  0  0  0  0  0
    1.5290    8.4950   40.5530 C   0  0  0  0  0  0  0  0  0  0  0  0
    1.2490    8.3640   39.2050 O   0  0  0  0  0  0  0  0  0  0  0  0
    1.0280    7.3030   41.2980 C   0  0  0  0  0  0  0  0  0  0  0  0
   -0.3570    7.3890   41.4390 O   0  0  0  0  0  0  0  0  0  0  0  0
    1.6320    7.2650   42.6840 C   0  0  0  0  0  0  0  0  0  0  0  0
    3.0230    7.3900   42.6480 O   0  0  0  0  0  0  0  0  0  0  0  0
    1.2480    6.0390   43.4550 C   0  0  0  0  0  0  0  0  0  0  0  0
    1.3440    4.9080   42.9150 O   0  0  0  0  0  0  0  0  0  0  0  0
    0.8120    6.1320   44.6320 O   0  0  0  0  0  0  0  0  0  0  0  0
    3.1630   10.5860   40.6790 H   0  0  0  0  0  0  0  0  0  0  0  0
    0.8100    9.1580   38.9220 H   0  0  0  0  0  0  0  0  0  0  0  0
   -0.8050    8.5560   42.1670 C   0  0  0  0  0  0  0  0  0  0  0  0
   -2.1410    8.2580   42.7630 C   0  0  0  0  0  0  0  0  0  0  0  0
   -2.0690    7.0370   43.5060 N   0  0  0  0  0  0  0  0  0  0  0  0
   -3.1240    8.0930   41.6580 C   0  0  0  0  0  0  0  0  0  0  0  0
   -4.3730    7.8080   42.1660 O   0  0  0  0  0  0  0  0  0  0  0  0
   -3.1630    9.3550   40.8690 C   0  0  0  0  0  0  0  0  0  0  0  0
   -4.0540    9.2180   39.8290 O   0  0  0  0  0  0  0  0  0  0  0  0
   -1.7880    9.5950   40.3370 C   0  0  0  0  0  0  0  0  0  0  0  0
   -0.9090    9.6970   41.3950 O   0  0  0  0  0  0  0  0  0  0  0  0
   -1.7370   10.8250   39.4850 C   0  0  0  0  0  0  0  0  0  0  0  0
   -0.7610   10.7380   38.5110 O   0  0  0  0  0  0  0  0  0  0  0  0
   -2.7190    6.9230   44.7730 C   0  0  0  0  0  0  0  0  0  0  0  0
   -3.3410    7.8700   45.2340 O   0  0  0  0  0  0  0  0  0  0  0  0
    1.5630   11.1190   38.0570 O   0  0  0  0  0  0  0  0  0  0  0  0
   -2.6280    5.6380   45.5280 C   0  0  0  0  0  0  0  0  0  0  0  0
    0.4380   12.2610   39.8270 O   0  5  0  0  0  0  0  0  0  0  0  0
   -0.0230   12.7770   37.5270 O   0  0  0  0  0  0  0  0  0  0  0  0
    0.3290   11.7380   38.4650 S   0  0  0  0  0  0  0  0  0  0  0  0
   -1.5520    6.2440   43.1280 H   0  0  0  0  0  0  0  0  0  0  0  0
   -5.0000    8.4670   41.8910 H   0  0  0  0  0  0  0  0  0  0  0  0
   -4.5410   10.0270   39.7220 H   0  0  0  0  0  0  0  0  0  0  0  0
  1  9  1  0  0  0  0
  1  2  1  0  0  0  0
  2  3  1  0  0  0  0
  3 13  1  0  0  0  0
  2  4  1  0  0  0  0
  4  5  1  0  0  0  0
  5 14  1  0  0  0  0
  4  6  1  0  0  0  0
  6  8  1  0  0  0  0
  6  7  1  0  0  0  0
  8 10  1  0  0  0  0
  8  9  1  0  0  0  0
 10 11  4  0  0  0  0
 10 12  4  0  0  0  0
  7 15  1  0  0  0  0
 15 29  1  0  0  0  0
 16 17  1  0  0  0  0
 17 20  2  0  0  0  0
 17 24  2  0  0  0  0
 15 18  1  0  0  0  0
 18 19  1  0  0  0  0
 17 19  1  0  0  0  0
 19 34  1  0  0  0  0
 21 27  1  0  0  0  0
 21 30  1  0  0  0  0
 21 33  2  0  0  0  0
 18 22  1  0  0  0  0
 22 23  1  0  0  0  0
 23 35  1  0  0  0  0
 22 25  1  0  0  0  0
 25 28  1  0  0  0  0
 25 26  1  0  0  0  0
 28 31  1  0  0  0  0
 28 29  1  0  0  0  0
 31 32  1  0  0  0  0
 21 32  1  0  0  0  0
 26 36  1  0  0  0  0
 36 47  1  0  0  0  0
 36 38  1  0  0  0  0
 38 39  1  0  0  0  0
 39 51  1  0  0  0  0
 38 41  1  0  0  0  0
 41 42  1  0  0  0  0
 42 52  1  0  0  0  0
 41 44  1  0  0  0  0
 44 46  1  0  0  0  0
 44 45  1  0  0  0  0
 46 48  1  0  0  0  0
 46 47  1  0  0  0  0
 48 49  4  0  0  0  0
 48 50  4  0  0  0  0
 37 51  1  0  0  0  0
 40 51  1  0  0  0  0
 43 51  2  0  0  0  0
 45 53  1  0  0  0  0
 53 56  1  0  0  0  0
 53 67  1  0  0  0  0
 54 55  1  0  0  0  0
 55 58  2  0  0  0  0
 55 62  2  0  0  0  0
 56 57  1  0  0  0  0
 56 60  1  0  0  0  0
 55 57  1  0  0  0  0
 57 72  1  0  0  0  0
 59 65  1  0  0  0  0
 59 68  1  0  0  0  0
 59 71  2  0  0  0  0
 60 61  1  0  0  0  0
 60 63  1  0  0  0  0
 61 73  1  0  0  0  0
 63 64  1  0  0  0  0
 63 66  1  0  0  0  0
 64 74  1  0  0  0  0
 66 67  1  0  0  0  0
 66 69  1  0  0  0  0
 69 70  1  0  0  0  0
 59 70  1  0  0  0  0
 74 75  1  0  0  0  0
 74 82  1  0  0  0  0
 75 76  1  0  0  0  0
 75 77  1  0  0  0  0
 76 86  1  0  0  0  0
 77 78  1  0  0  0  0
 77 79  1  0  0  0  0
 78 87  1  0  0  0  0
 79 80  1  0  0  0  0
 79 81  1  0  0  0  0
 80 88  1  0  0  0  0
 81 82  1  0  0  0  0
 81 83  1  0  0  0  0
 83 84  4  0  0  0  0
 83 85  4  0  0  0  0
 88 89  1  0  0  0  0
 88 96  1  0  0  0  0
 89 90  1  0  0  0  0
 89 91  1  0  0  0  0
 90 99  1  0  0  0  0
 90106  1  0  0  0  0
 91 92  1  0  0  0  0
 91 93  1  0  0  0  0
 92107  1  0  0  0  0
 93 94  1  0  0  0  0
 93 95  1  0  0  0  0
 94108  1  0  0  0  0
 95 96  1  0  0  0  0
 95 97  1  0  0  0  0
 97 98  1  0  0  0  0
 98105  1  0  0  0  0
 99100  2  0  0  0  0
 99102  1  0  0  0  0
101105  1  0  0  0  0
103105  1  0  0  0  0
104105  2  0  0  0  0
M  END
$$$$
Run_1_Vina
  PyMOL2.5          3D                             0

108113  0  0  0  0  0  0  0  0999 V2000
   26.7970   13.3050   42.8730 C   0  0  0  0  0  0  0  0  0  0  0  0
   25.4540   13.9050   42.6400 C   0  0  0  0  0  0  0  0  0  0  0  0
   25.4370   15.1660   43.2020 O   0  0  0  0  0  0  0  0  0  0  0  0
   24.3750   13.0810   43.2530 C   0  0  0  0  0  0  0  0  0  0  0  0
   23.1620   13.5640   42.8010 O   0  0  0  0  0  0  0  0  0  0  0  0
   24.5010   11.6370   42.8930 C   0  0  0  0  0  0  0  0  0  0  0  0
   23.6870   10.8880   43.7280 O   0  0  0  0  0  0  0  0  0  0  0  0
   25.9240   11.1740   43.0710 C   0  0  0  0  0  0  0  0  0  0  0  0
   26.7920   12.0140   42.3860 O   0  0  0  0  0  0  0  0  0  0  0  0
   26.1310    9.7690   42.5900 C   0  0  0  0  0  0  0  0  0  0  0  0
   26.8180    8.9680   43.2760 O   0  0  0  0  0  0  0  0  0  0  0  0
   25.6260    9.3940   41.4980 O   0  0  0  0  0  0  0  0  0  0  0  0
   24.7950   15.1740   43.9020 H   0  0  0  0  0  0  0  0  0  0  0  0
   22.5330   13.4790   43.5080 H   0  0  0  0  0  0  0  0  0  0  0  0
   23.8490   11.2370   45.1220 C   0  0  0  0  0  0  0  0  0  0  0  0
   24.0870    6.9330   46.9820 O   0  0  0  0  0  0  0  0  0  0  0  0
   25.0860    7.8150   46.3870 S   0  0  0  0  0  0  0  0  0  0  0  0
   23.5950    9.9940   45.9750 C   0  0  0  0  0  0  0  0  0  0  0  0
   24.3150    8.8510   45.4430 N   0  0  0  0  0  0  0  0  0  0  0  0
   26.0010    7.0620   45.5340 O   0  0  0  0  0  0  0  0  0  0  0  0
   21.6930   15.6050   45.3230 S   0  0  0  0  0  0  0  0  0  0  0  0
   22.1120    9.6180   45.9950 C   0  0  0  0  0  0  0  0  0  0  0  0
   21.8940    8.6310   46.9750 O   0  0  0  0  0  0  0  0  0  0  0  0
   25.7750    8.6280   47.3840 O   0  0  0  0  0  0  0  0  0  0  0  0
   21.1830   10.8030   46.2390 C   0  0  0  0  0  0  0  0  0  0  0  0
   19.8590   10.3740   45.9450 O   0  0  0  0  0  0  0  0  0  0  0  0
   20.5900   16.5580   45.2140 O   0  0  0  0  0  0  0  0  0  0  0  0
   21.6090   11.9630   45.3400 C   0  0  0  0  0  0  0  0  0  0  0  0
   22.9850   12.2760   45.5360 O   0  0  0  0  0  0  0  0  0  0  0  0
   22.0680   15.3690   46.7120 O   0  5  0  0  0  0  0  0  0  0  0  0
   20.7610   13.2120   45.5630 C   0  0  0  0  0  0  0  0  0  0  0  0
   21.1930   14.2540   44.7150 O   0  0  0  0  0  0  0  0  0  0  0  0
   22.8530   16.0210   44.5460 O   0  0  0  0  0  0  0  0  0  0  0  0
   24.3310    8.7050   44.4340 H   0  0  0  0  0  0  0  0  0  0  0  0
   22.2120    7.7950   46.6550 H   0  0  0  0  0  0  0  0  0  0  0  0
   18.9120   11.4660   45.8400 C   0  0  0  0  0  0  0  0  0  0  0  0
   16.5500   13.0580   42.1760 O   0  0  0  0  0  0  0  0  0  0  0  0
   17.9280   11.1840   44.7460 C   0  0  0  0  0  0  0  0  0  0  0  0
   17.3270   12.3570   44.3240 O   0  0  0  0  0  0  0  0  0  0  0  0
   18.3230   14.2250   43.2950 O   0  5  0  0  0  0  0  0  0  0  0  0
   16.8890   10.1600   45.1500 C   0  0  0  0  0  0  0  0  0  0  0  0
   17.4390    8.9090   44.9470 O   0  0  0  0  0  0  0  0  0  0  0  0
   18.6710   12.0650   42.3570 O   0  0  0  0  0  0  0  0  0  0  0  0
   16.4290   10.2490   46.5790 C   0  0  0  0  0  0  0  0  0  0  0  0
   15.3250   11.0920   46.7310 O   0  0  0  0  0  0  0  0  0  0  0  0
   17.5670   10.6550   47.4750 C   0  0  0  0  0  0  0  0  0  0  0  0
   18.2280   11.7630   46.9950 O   0  0  0  0  0  0  0  0  0  0  0  0
   17.0420   10.9830   48.8370 C   0  0  0  0  0  0  0  0  0  0  0  0
   16.6520   10.0660   49.6060 O   0  0  0  0  0  0  0  0  0  0  0  0
   16.9800   12.1840   49.2120 O   0  0  0  0  0  0  0  0  0  0  0  0
   17.7130   12.9190   43.0160 S   0  0  0  0  0  0  0  0  0  0  0  0
   18.2730    8.8870   45.4010 H   0  0  0  0  0  0  0  0  0  0  0  0
   14.2390   10.4180   47.4170 C   0  0  0  0  0  0  0  0  0  0  0  0
   12.7750    6.5990   45.8800 O   0  0  0  0  0  0  0  0  0  0  0  0
   14.1310    6.9600   46.2510 S   0  0  0  0  0  0  0  0  0  0  0  0
   13.4750    9.4690   46.4880 C   0  0  0  0  0  0  0  0  0  0  0  0
   14.3610    8.4960   45.8770 N   0  0  0  0  0  0  0  0  0  0  0  0
   15.0960    6.1670   45.4970 O   0  0  0  0  0  0  0  0  0  0  0  0
    9.5360   13.5880   48.7210 S   0  0  0  0  0  0  0  0  0  0  0  0
   12.7190   10.2290   45.4020 C   0  0  0  0  0  0  0  0  0  0  0  0
   11.9400    9.3230   44.6450 O   0  0  0  0  0  0  0  0  0  0  0  0
   14.3590    6.8790   47.6920 O   0  0  0  0  0  0  0  0  0  0  0  0
   11.8270   11.2930   46.0240 C   0  0  0  0  0  0  0  0  0  0  0  0
   11.3370   12.1110   44.9710 O   0  0  0  0  0  0  0  0  0  0  0  0
   10.1520   14.6010   49.5680 O   0  0  0  0  0  0  0  0  0  0  0  0
   12.6730   12.1250   46.9870 C   0  0  0  0  0  0  0  0  0  0  0  0
   13.2990   11.3190   47.9680 O   0  0  0  0  0  0  0  0  0  0  0  0
    8.9470   14.1400   47.5090 O   0  5  0  0  0  0  0  0  0  0  0  0
   11.8490   13.1840   47.7090 C   0  0  0  0  0  0  0  0  0  0  0  0
   10.6720   12.6170   48.2390 O   0  0  0  0  0  0  0  0  0  0  0  0
    8.5610   12.7820   49.4450 O   0  0  0  0  0  0  0  0  0  0  0  0
   15.1010    8.7800   45.2340 H   0  0  0  0  0  0  0  0  0  0  0  0
   12.3800    9.1360   43.8240 H   0  0  0  0  0  0  0  0  0  0  0  0
    9.9110   12.0170   44.7700 C   0  0  0  0  0  0  0  0  0  0  0  0
    9.5080   12.8020   43.5580 C   0  0  0  0  0  0  0  0  0  0  0  0
    9.9380   14.1170   43.6590 O   0  0  0  0  0  0  0  0  0  0  0  0
    8.0290   12.8050   43.3970 C   0  0  0  0  0  0  0  0  0  0  0  0
    7.7390   13.3960   42.1810 O   0  0  0  0  0  0  0  0  0  0  0  0
    7.4670   11.4230   43.4410 C   0  0  0  0  0  0  0  0  0  0  0  0
    6.0890   11.4850   43.6460 O   0  0  0  0  0  0  0  0  0  0  0  0
    8.0720   10.6530   44.5940 C   0  0  0  0  0  0  0  0  0  0  0  0
    9.4670   10.7170   44.5870 O   0  0  0  0  0  0  0  0  0  0  0  0
    7.6250    9.2230   44.6390 C   0  0  0  0  0  0  0  0  0  0  0  0
    8.0150    8.4210   43.7530 O   0  0  0  0  0  0  0  0  0  0  0  0
    6.8500    8.8230   45.5450 O   0  0  0  0  0  0  0  0  0  0  0  0
   10.8800   14.1730   43.5500 H   0  0  0  0  0  0  0  0  0  0  0  0
    7.3620   14.2510   42.3570 H   0  0  0  0  0  0  0  0  0  0  0  0
    5.3030   11.1370   42.4820 C   0  0  0  0  0  0  0  0  0  0  0  0
    4.1650   12.0970   42.3750 C   0  0  0  0  0  0  0  0  0  0  0  0
    4.6660   13.4360   42.4240 N   0  0  0  0  0  0  0  0  0  0  0  0
    3.2550   11.8790   43.5330 C   0  0  0  0  0  0  0  0  0  0  0  0
    2.1910   12.7530   43.4770 O   0  0  0  0  0  0  0  0  0  0  0  0
    2.7700   10.4720   43.4930 C   0  0  0  0  0  0  0  0  0  0  0  0
    1.9390   10.2440   44.5670 O   0  0  0  0  0  0  0  0  0  0  0  0
    3.9660    9.5820   43.5730 C   0  0  0  0  0  0  0  0  0  0  0  0
    4.7980    9.8510   42.5060 O   0  0  0  0  0  0  0  0  0  0  0  0
    3.5740    8.1370   43.5880 C   0  0  0  0  0  0  0  0  0  0  0  0
    2.4400    7.9030   42.8350 O   0  0  0  0  0  0  0  0  0  0  0  0
    4.5570   14.2910   41.2850 C   0  0  0  0  0  0  0  0  0  0  0  0
    4.0350   13.8820   40.2570 O   0  0  0  0  0  0  0  0  0  0  0  0
    0.2500    6.9850   42.4960 O   0  0  0  0  0  0  0  0  0  0  0  0
    5.0870   15.6840   41.3620 C   0  0  0  0  0  0  0  0  0  0  0  0
    1.1890    7.1870   44.6820 O   0  5  0  0  0  0  0  0  0  0  0  0
    2.0300    5.5730   43.1170 O   0  0  0  0  0  0  0  0  0  0  0  0
    1.4560    6.8880   43.2760 S   0  0  0  0  0  0  0  0  0  0  0  0
    5.1030   13.7830   43.2780 H   0  0  0  0  0  0  0  0  0  0  0  0
    2.3990   13.4910   42.9150 H   0  0  0  0  0  0  0  0  0  0  0  0
    2.1230    9.3860   44.9310 H   0  0  0  0  0  0  0  0  0  0  0  0
  1  9  1  0  0  0  0
  1  2  1  0  0  0  0
  2  3  1  0  0  0  0
  3 13  1  0  0  0  0
  2  4  1  0  0  0  0
  4  5  1  0  0  0  0
  5 14  1  0  0  0  0
  4  6  1  0  0  0  0
  6  8  1  0  0  0  0
  6  7  1  0  0  0  0
  8 10  1  0  0  0  0
  8  9  1  0  0  0  0
 10 11  4  0  0  0  0
 10 12  4  0  0  0  0
  7 15  1  0  0  0  0
 15 29  1  0  0  0  0
 16 17  1  0  0  0  0
 17 20  2  0  0  0  0
 17 24  2  0  0  0  0
 15 18  1  0  0  0  0
 18 19  1  0  0  0  0
 17 19  1  0  0  0  0
 19 34  1  0  0  0  0
 21 27  1  0  0  0  0
 21 30  1  0  0  0  0
 21 33  2  0  0  0  0
 18 22  1  0  0  0  0
 22 23  1  0  0  0  0
 23 35  1  0  0  0  0
 22 25  1  0  0  0  0
 25 28  1  0  0  0  0
 25 26  1  0  0  0  0
 28 31  1  0  0  0  0
 28 29  1  0  0  0  0
 31 32  1  0  0  0  0
 21 32  1  0  0  0  0
 26 36  1  0  0  0  0
 36 47  1  0  0  0  0
 36 38  1  0  0  0  0
 38 39  1  0  0  0  0
 39 51  1  0  0  0  0
 38 41  1  0  0  0  0
 41 42  1  0  0  0  0
 42 52  1  0  0  0  0
 41 44  1  0  0  0  0
 44 46  1  0  0  0  0
 44 45  1  0  0  0  0
 46 48  1  0  0  0  0
 46 47  1  0  0  0  0
 48 49  4  0  0  0  0
 48 50  4  0  0  0  0
 37 51  1  0  0  0  0
 40 51  1  0  0  0  0
 43 51  2  0  0  0  0
 45 53  1  0  0  0  0
 53 56  1  0  0  0  0
 53 67  1  0  0  0  0
 54 55  1  0  0  0  0
 55 58  2  0  0  0  0
 55 62  2  0  0  0  0
 56 57  1  0  0  0  0
 56 60  1  0  0  0  0
 55 57  1  0  0  0  0
 57 72  1  0  0  0  0
 59 65  1  0  0  0  0
 59 68  1  0  0  0  0
 59 71  2  0  0  0  0
 60 61  1  0  0  0  0
 60 63  1  0  0  0  0
 61 73  1  0  0  0  0
 63 64  1  0  0  0  0
 63 66  1  0  0  0  0
 64 74  1  0  0  0  0
 66 67  1  0  0  0  0
 66 69  1  0  0  0  0
 69 70  1  0  0  0  0
 59 70  1  0  0  0  0
 74 75  1  0  0  0  0
 74 82  1  0  0  0  0
 75 76  1  0  0  0  0
 75 77  1  0  0  0  0
 76 86  1  0  0  0  0
 77 78  1  0  0  0  0
 77 79  1  0  0  0  0
 78 87  1  0  0  0  0
 79 80  1  0  0  0  0
 79 81  1  0  0  0  0
 80 88  1  0  0  0  0
 81 82  1  0  0  0  0
 81 83  1  0  0  0  0
 83 84  4  0  0  0  0
 83 85  4  0  0  0  0
 88 89  1  0  0  0  0
 88 96  1  0  0  0  0
 89 90  1  0  0  0  0
 89 91  1  0  0  0  0
 90 99  1  0  0  0  0
 90106  1  0  0  0  0
 91 92  1  0  0  0  0
 91 93  1  0  0  0  0
 92107  1  0  0  0  0
 93 94  1  0  0  0  0
 93 95  1  0  0  0  0
 94108  1  0  0  0  0
 95 96  1  0  0  0  0
 95 97  1  0  0  0  0
 97 98  1  0  0  0  0
 98105  1  0  0  0  0
 99100  2  0  0  0  0
 99102  1  0  0  0  0
101105  1  0  0  0  0
103105  1  0  0  0  0
104105  2  0  0  0  0
M  END
$$$$
Run_1_Vina
  PyMOL2.5          3D                             0

108113  0  0  0  0  0  0  0  0999 V2000
   19.2400   11.8560   44.1360 C   0  0  0  0  0  0  0  0  0  0  0  0
   19.2400   11.0010   45.3550 C   0  0  0  0  0  0  0  0  0  0  0  0
   20.1750    9.9990   45.1830 O   0  0  0  0  0  0  0  0  0  0  0  0
   17.9030   10.3880   45.5910 C   0  0  0  0  0  0  0  0  0  0  0  0
   17.9160    9.8100   46.8460 O   0  0  0  0  0  0  0  0  0  0  0  0
   16.8050   11.3970   45.5190 C   0  0  0  0  0  0  0  0  0  0  0  0
   15.5890   10.7390   45.4260 O   0  0  0  0  0  0  0  0  0  0  0  0
   16.9710   12.2680   44.3010 C   0  0  0  0  0  0  0  0  0  0  0  0
   18.2500   12.8080   44.2680 O   0  0  0  0  0  0  0  0  0  0  0  0
   15.9730   13.3860   44.2570 C   0  0  0  0  0  0  0  0  0  0  0  0
   15.0710   13.3860   43.3810 O   0  0  0  0  0  0  0  0  0  0  0  0
   16.0430   14.3280   45.0920 O   0  0  0  0  0  0  0  0  0  0  0  0
   19.8850    9.2330   45.6640 H   0  0  0  0  0  0  0  0  0  0  0  0
   17.7110    8.8870   46.7440 H   0  0  0  0  0  0  0  0  0  0  0  0
   14.9660   10.5350   46.7150 C   0  0  0  0  0  0  0  0  0  0  0  0
   15.1170    5.9720   45.6450 O   0  0  0  0  0  0  0  0  0  0  0  0
   14.1660    6.8210   46.3540 S   0  0  0  0  0  0  0  0  0  0  0  0
   13.8800    9.4680   46.5760 C   0  0  0  0  0  0  0  0  0  0  0  0
   14.3800    8.3210   45.8410 N   0  0  0  0  0  0  0  0  0  0  0  0
   14.4380    6.8190   47.7890 O   0  0  0  0  0  0  0  0  0  0  0  0
   12.3400   13.7130   49.3910 S   0  0  0  0  0  0  0  0  0  0  0  0
   12.6660    9.9980   45.8070 C   0  0  0  0  0  0  0  0  0  0  0  0
   11.6080    9.0760   45.9150 O   0  0  0  0  0  0  0  0  0  0  0  0
   12.7810    6.4900   46.0370 O   0  0  0  0  0  0  0  0  0  0  0  0
   12.2020   11.3750   46.2700 C   0  0  0  0  0  0  0  0  0  0  0  0
   11.2800   11.8600   45.3020 O   0  0  0  0  0  0  0  0  0  0  0  0
   12.3730   12.3380   49.8870 O   0  0  0  0  0  0  0  0  0  0  0  0
   13.4170   12.2930   46.3970 C   0  0  0  0  0  0  0  0  0  0  0  0
   14.4010   11.7150   47.2500 O   0  0  0  0  0  0  0  0  0  0  0  0
   12.6780   14.6730   50.4350 O   0  5  0  0  0  0  0  0  0  0  0  0
   13.0440   13.6810   46.9090 C   0  0  0  0  0  0  0  0  0  0  0  0
   13.4180   13.8190   48.2620 O   0  0  0  0  0  0  0  0  0  0  0  0
   11.0560   14.0450   48.7890 O   0  0  0  0  0  0  0  0  0  0  0  0
   14.8850    8.4760   44.9680 H   0  0  0  0  0  0  0  0  0  0  0  0
   10.8330    9.4380   45.5020 H   0  0  0  0  0  0  0  0  0  0  0  0
    9.9640   12.1290   45.8450 C   0  0  0  0  0  0  0  0  0  0  0  0
    9.8270   15.7480   46.1570 O   0  0  0  0  0  0  0  0  0  0  0  0
    9.3700   13.3300   45.1750 C   0  0  0  0  0  0  0  0  0  0  0  0
    8.3640   13.8700   45.9570 O   0  0  0  0  0  0  0  0  0  0  0  0
    7.5040   16.0370   45.6290 O   0  5  0  0  0  0  0  0  0  0  0  0
    8.8650   13.0250   43.7810 C   0  0  0  0  0  0  0  0  0  0  0  0
    9.9440   13.1070   42.9220 O   0  0  0  0  0  0  0  0  0  0  0  0
    8.2000   15.3860   47.8110 O   0  0  0  0  0  0  0  0  0  0  0  0
    8.2300   11.6730   43.6140 C   0  0  0  0  0  0  0  0  0  0  0  0
    6.8550   11.6960   43.8600 O   0  0  0  0  0  0  0  0  0  0  0  0
    8.9300   10.6520   44.4710 C   0  0  0  0  0  0  0  0  0  0  0  0
    9.0740   11.0840   45.7690 O   0  0  0  0  0  0  0  0  0  0  0  0
    8.1380    9.3830   44.4890 C   0  0  0  0  0  0  0  0  0  0  0  0
    7.3000    9.1690   45.4020 O   0  0  0  0  0  0  0  0  0  0  0  0
    8.3210    8.5190   43.5900 O   0  0  0  0  0  0  0  0  0  0  0  0
    8.4900   15.2700   46.4030 S   0  0  0  0  0  0  0  0  0  0  0  0
   10.5790   13.6930   43.3170 H   0  0  0  0  0  0  0  0  0  0  0  0
    6.0990   11.6830   42.6220 C   0  0  0  0  0  0  0  0  0  0  0  0
    3.9630   15.9460   42.3490 O   0  0  0  0  0  0  0  0  0  0  0  0
    5.0850   15.1730   41.8500 S   0  0  0  0  0  0  0  0  0  0  0  0
    4.9490   12.6950   42.6390 C   0  0  0  0  0  0  0  0  0  0  0  0
    5.4260   14.0370   42.9200 N   0  0  0  0  0  0  0  0  0  0  0  0
    6.2650   16.0200   41.7060 O   0  0  0  0  0  0  0  0  0  0  0  0
    3.1100    8.0750   40.7890 S   0  0  0  0  0  0  0  0  0  0  0  0
    3.8740   12.3100   43.6520 C   0  0  0  0  0  0  0  0  0  0  0  0
    2.7850   13.2070   43.5490 O   0  0  0  0  0  0  0  0  0  0  0  0
    4.7690   14.4560   40.6170 O   0  0  0  0  0  0  0  0  0  0  0  0
    3.4030   10.8850   43.4070 C   0  0  0  0  0  0  0  0  0  0  0  0
    2.5880   10.5080   44.5080 O   0  0  0  0  0  0  0  0  0  0  0  0
    4.0110    6.9370   40.6670 O   0  0  0  0  0  0  0  0  0  0  0  0
    4.6330    9.9800   43.3290 C   0  0  0  0  0  0  0  0  0  0  0  0
    5.5430   10.4150   42.3360 O   0  0  0  0  0  0  0  0  0  0  0  0
    1.7400    7.7610   40.4090 O   0  5  0  0  0  0  0  0  0  0  0  0
    4.2640    8.5340   43.0230 C   0  0  0  0  0  0  0  0  0  0  0  0
    3.0510    8.4740   42.3060 O   0  0  0  0  0  0  0  0  0  0  0  0
    3.5910    9.2400   40.0570 O   0  0  0  0  0  0  0  0  0  0  0  0
    5.9580   14.2460   43.7650 H   0  0  0  0  0  0  0  0  0  0  0  0
    3.0500   13.9730   43.0540 H   0  0  0  0  0  0  0  0  0  0  0  0
    2.9670   11.1240   45.7570 C   0  0  0  0  0  0  0  0  0  0  0  0
    1.7480   11.4180   46.5780 C   0  0  0  0  0  0  0  0  0  0  0  0
    0.8490   12.1950   45.8630 O   0  0  0  0  0  0  0  0  0  0  0  0
    2.1120   12.1490   47.8220 C   0  0  0  0  0  0  0  0  0  0  0  0
    0.9760   12.2380   48.6060 O   0  0  0  0  0  0  0  0  0  0  0  0
    3.1980   11.4530   48.5730 C   0  0  0  0  0  0  0  0  0  0  0  0
    3.7500   12.3240   49.5120 O   0  0  0  0  0  0  0  0  0  0  0  0
    4.3000   11.0370   47.6250 C   0  0  0  0  0  0  0  0  0  0  0  0
    3.8030   10.3310   46.5270 O   0  0  0  0  0  0  0  0  0  0  0  0
    5.3810   10.2440   48.2970 C   0  0  0  0  0  0  0  0  0  0  0  0
    5.1220    9.1030   48.7530 O   0  0  0  0  0  0  0  0  0  0  0  0
    6.5380   10.7190   48.4250 O   0  0  0  0  0  0  0  0  0  0  0  0
    0.1640   12.5270   46.4320 H   0  0  0  0  0  0  0  0  0  0  0  0
    1.0090   11.5350   49.2440 H   0  0  0  0  0  0  0  0  0  0  0  0
    4.0660   11.7020   50.7790 C   0  0  0  0  0  0  0  0  0  0  0  0
    3.0590   12.1430   51.7890 C   0  0  0  0  0  0  0  0  0  0  0  0
    1.7420   11.9100   51.2800 N   0  0  0  0  0  0  0  0  0  0  0  0
    3.2350   13.6030   52.0220 C   0  0  0  0  0  0  0  0  0  0  0  0
    2.3150   14.0540   52.9450 O   0  0  0  0  0  0  0  0  0  0  0  0
    4.6190   13.8380   52.5150 C   0  0  0  0  0  0  0  0  0  0  0  0
    4.8090   15.1850   52.7210 O   0  0  0  0  0  0  0  0  0  0  0  0
    5.5600   13.3430   51.4660 C   0  0  0  0  0  0  0  0  0  0  0  0
    5.3300   11.9990   51.2540 O   0  0  0  0  0  0  0  0  0  0  0  0
    6.9870   13.5810   51.8520 C   0  0  0  0  0  0  0  0  0  0  0  0
    7.5980   14.5030   51.0230 O   0  0  0  0  0  0  0  0  0  0  0  0
    0.7240   11.3750   52.1280 C   0  0  0  0  0  0  0  0  0  0  0  0
    0.9720   11.1110   53.2960 O   0  0  0  0  0  0  0  0  0  0  0  0
    7.7200   15.9050   52.9660 O   0  0  0  0  0  0  0  0  0  0  0  0
   -0.6410   11.1410   51.5720 C   0  0  0  0  0  0  0  0  0  0  0  0
    7.4300   16.8280   50.7830 O   0  5  0  0  0  0  0  0  0  0  0  0
    9.5190   15.8470   51.4460 O   0  0  0  0  0  0  0  0  0  0  0  0
    8.0820   15.7880   51.5770 S   0  0  0  0  0  0  0  0  0  0  0  0
    1.5290   12.1270   50.3070 H   0  0  0  0  0  0  0  0  0  0  0  0
    1.4360   13.8100   52.6810 H   0  0  0  0  0  0  0  0  0  0  0  0
    4.2030   15.4920   53.3840 H   0  0  0  0  0  0  0  0  0  0  0  0
  1  9  1  0  0  0  0
  1  2  1  0  0  0  0
  2  3  1  0  0  0  0
  3 13  1  0  0  0  0
  2  4  1  0  0  0  0
  4  5  1  0  0  0  0
  5 14  1  0  0  0  0
  4  6  1  0  0  0  0
  6  8  1  0  0  0  0
  6  7  1  0  0  0  0
  8 10  1  0  0  0  0
  8  9  1  0  0  0  0
 10 11  4  0  0  0  0
 10 12  4  0  0  0  0
  7 15  1  0  0  0  0
 15 29  1  0  0  0  0
 16 17  1  0  0  0  0
 17 20  2  0  0  0  0
 17 24  2  0  0  0  0
 15 18  1  0  0  0  0
 18 19  1  0  0  0  0
 17 19  1  0  0  0  0
 19 34  1  0  0  0  0
 21 27  1  0  0  0  0
 21 30  1  0  0  0  0
 21 33  2  0  0  0  0
 18 22  1  0  0  0  0
 22 23  1  0  0  0  0
 23 35  1  0  0  0  0
 22 25  1  0  0  0  0
 25 28  1  0  0  0  0
 25 26  1  0  0  0  0
 28 31  1  0  0  0  0
 28 29  1  0  0  0  0
 31 32  1  0  0  0  0
 21 32  1  0  0  0  0
 26 36  1  0  0  0  0
 36 47  1  0  0  0  0
 36 38  1  0  0  0  0
 38 39  1  0  0  0  0
 39 51  1  0  0  0  0
 38 41  1  0  0  0  0
 41 42  1  0  0  0  0
 42 52  1  0  0  0  0
 41 44  1  0  0  0  0
 44 46  1  0  0  0  0
 44 45  1  0  0  0  0
 46 48  1  0  0  0  0
 46 47  1  0  0  0  0
 48 49  4  0  0  0  0
 48 50  4  0  0  0  0
 37 51  1  0  0  0  0
 40 51  1  0  0  0  0
 43 51  2  0  0  0  0
 45 53  1  0  0  0  0
 53 56  1  0  0  0  0
 53 67  1  0  0  0  0
 54 55  1  0  0  0  0
 55 58  2  0  0  0  0
 55 62  2  0  0  0  0
 56 57  1  0  0  0  0
 56 60  1  0  0  0  0
 55 57  1  0  0  0  0
 57 72  1  0  0  0  0
 59 65  1  0  0  0  0
 59 68  1  0  0  0  0
 59 71  2  0  0  0  0
 60 61  1  0  0  0  0
 60 63  1  0  0  0  0
 61 73  1  0  0  0  0
 63 64  1  0  0  0  0
 63 66  1  0  0  0  0
 64 74  1  0  0  0  0
 66 67  1  0  0  0  0
 66 69  1  0  0  0  0
 69 70  1  0  0  0  0
 59 70  1  0  0  0  0
 74 75  1  0  0  0  0
 74 82  1  0  0  0  0
 75 76  1  0  0  0  0
 75 77  1  0  0  0  0
 76 86  1  0  0  0  0
 77 78  1  0  0  0  0
 77 79  1  0  0  0  0
 78 87  1  0  0  0  0
 79 80  1  0  0  0  0
 79 81  1  0  0  0  0
 80 88  1  0  0  0  0
 81 82  1  0  0  0  0
 81 83  1  0  0  0  0
 83 84  4  0  0  0  0
 83 85  4  0  0  0  0
 88 89  1  0  0  0  0
 88 96  1  0  0  0  0
 89 90  1  0  0  0  0
 89 91  1  0  0  0  0
 90 99  1  0  0  0  0
 90106  1  0  0  0  0
 91 92  1  0  0  0  0
 91 93  1  0  0  0  0
 92107  1  0  0  0  0
 93 94  1  0  0  0  0
 93 95  1  0  0  0  0
 94108  1  0  0  0  0
 95 96  1  0  0  0  0
 95 97  1  0  0  0  0
 97 98  1  0  0  0  0
 98105  1  0  0  0  0
 99100  2  0  0  0  0
 99102  1  0  0  0  0
101105  1  0  0  0  0
103105  1  0  0  0  0
104105  2  0  0  0  0
M  END
$$$$
Run_1_Vina
  PyMOL2.5          3D                             0

108113  0  0  0  0  0  0  0  0999 V2000
   18.7390   13.1190   46.1610 C   0  0  0  0  0  0  0  0  0  0  0  0
   17.8600   14.0940   45.4570 C   0  0  0  0  0  0  0  0  0  0  0  0
   17.8080   15.2530   46.2070 O   0  0  0  0  0  0  0  0  0  0  0  0
   16.4810   13.5590   45.2850 C   0  0  0  0  0  0  0  0  0  0  0  0
   15.8000   14.4060   44.4320 O   0  0  0  0  0  0  0  0  0  0  0  0
   16.4840   12.1780   44.7200 C   0  0  0  0  0  0  0  0  0  0  0  0
   15.2250   11.6180   44.8800 O   0  0  0  0  0  0  0  0  0  0  0  0
   17.4850   11.3150   45.4450 C   0  0  0  0  0  0  0  0  0  0  0  0
   18.7290   11.9320   45.4590 O   0  0  0  0  0  0  0  0  0  0  0  0
   17.6250    9.9580   44.8230 C   0  0  0  0  0  0  0  0  0  0  0  0
   17.3720    8.9290   45.5020 O   0  0  0  0  0  0  0  0  0  0  0  0
   18.0040    9.8480   43.6260 O   0  0  0  0  0  0  0  0  0  0  0  0
   17.6560   15.0170   47.1140 H   0  0  0  0  0  0  0  0  0  0  0  0
   15.0740   14.7840   44.9140 H   0  0  0  0  0  0  0  0  0  0  0  0
   14.7850   11.6240   46.2570 C   0  0  0  0  0  0  0  0  0  0  0  0
   12.9160    7.4890   46.8860 O   0  0  0  0  0  0  0  0  0  0  0  0
   14.3190    7.8410   46.6900 S   0  0  0  0  0  0  0  0  0  0  0  0
   13.8220   10.4560   46.4730 C   0  0  0  0  0  0  0  0  0  0  0  0
   14.3640    9.2340   45.9080 N   0  0  0  0  0  0  0  0  0  0  0  0
   14.9870    6.8560   45.8460 O   0  0  0  0  0  0  0  0  0  0  0  0
   12.5480   15.8950   43.9080 S   0  0  0  0  0  0  0  0  0  0  0  0
   12.4740   10.7060   45.7910 C   0  0  0  0  0  0  0  0  0  0  0  0
   11.5500    9.7320   46.2160 O   0  0  0  0  0  0  0  0  0  0  0  0
   15.0150    8.0750   47.9520 O   0  0  0  0  0  0  0  0  0  0  0  0
   11.9090   12.1000   46.0430 C   0  0  0  0  0  0  0  0  0  0  0  0
   10.8310   12.2920   45.1360 O   0  0  0  0  0  0  0  0  0  0  0  0
   11.2020   15.3250   43.8850 O   0  0  0  0  0  0  0  0  0  0  0  0
   13.0150   13.1320   45.8260 C   0  0  0  0  0  0  0  0  0  0  0  0
   14.1520   12.8320   46.6300 O   0  0  0  0  0  0  0  0  0  0  0  0
   12.5200   17.3520   43.8560 O   0  5  0  0  0  0  0  0  0  0  0  0
   12.5440   14.5550   46.1120 C   0  0  0  0  0  0  0  0  0  0  0  0
   13.2030   15.4680   45.2630 O   0  0  0  0  0  0  0  0  0  0  0  0
   13.3840   15.3620   42.8410 O   0  0  0  0  0  0  0  0  0  0  0  0
   14.7880    9.2660   44.9800 H   0  0  0  0  0  0  0  0  0  0  0  0
   10.6950    9.9300   45.8520 H   0  0  0  0  0  0  0  0  0  0  0  0
    9.5370   12.3530   45.7860 C   0  0  0  0  0  0  0  0  0  0  0  0
    9.0340   15.7300   46.5030 O   0  0  0  0  0  0  0  0  0  0  0  0
    8.7030   13.4310   45.1650 C   0  0  0  0  0  0  0  0  0  0  0  0
    7.6900   13.8140   46.0260 O   0  0  0  0  0  0  0  0  0  0  0  0
    6.7000   15.6840   47.0590 O   0  5  0  0  0  0  0  0  0  0  0  0
    8.1440   13.0280   43.8180 C   0  0  0  0  0  0  0  0  0  0  0  0
    9.1210   13.2710   42.8730 O   0  0  0  0  0  0  0  0  0  0  0  0
    8.2830   14.3910   48.2800 O   0  0  0  0  0  0  0  0  0  0  0  0
    7.7240   11.5890   43.7060 C   0  0  0  0  0  0  0  0  0  0  0  0
    6.3880   11.3940   44.0640 O   0  0  0  0  0  0  0  0  0  0  0  0
    8.6480   10.7080   44.5040 C   0  0  0  0  0  0  0  0  0  0  0  0
    8.8240   11.1770   45.7860 O   0  0  0  0  0  0  0  0  0  0  0  0
    8.0760    9.3280   44.5900 C   0  0  0  0  0  0  0  0  0  0  0  0
    7.3530    8.9980   45.5650 O   0  0  0  0  0  0  0  0  0  0  0  0
    8.3300    8.4880   43.6850 O   0  0  0  0  0  0  0  0  0  0  0  0
    7.9470   14.9120   46.9770 S   0  0  0  0  0  0  0  0  0  0  0  0
    9.6830   13.9570   43.2130 H   0  0  0  0  0  0  0  0  0  0  0  0
    5.5820   11.0360   42.9130 C   0  0  0  0  0  0  0  0  0  0  0  0
    4.6190   13.0450   40.3440 O   0  0  0  0  0  0  0  0  0  0  0  0
    4.5130   14.0420   41.3940 S   0  0  0  0  0  0  0  0  0  0  0  0
    4.3040   11.8750   42.8230 C   0  0  0  0  0  0  0  0  0  0  0  0
    4.6010   13.2960   42.8030 N   0  0  0  0  0  0  0  0  0  0  0  0
    3.2220   14.7190   41.3260 O   0  0  0  0  0  0  0  0  0  0  0  0
    2.3040    6.8460   42.6810 S   0  0  0  0  0  0  0  0  0  0  0  0
    3.3440   11.5670   43.9690 C   0  0  0  0  0  0  0  0  0  0  0  0
    2.1360   12.2790   43.7790 O   0  0  0  0  0  0  0  0  0  0  0  0
    5.6290   14.9850   41.3880 O   0  0  0  0  0  0  0  0  0  0  0  0
    3.0660   10.0740   44.0400 C   0  0  0  0  0  0  0  0  0  0  0  0
    2.3670    9.8250   45.2500 O   0  0  0  0  0  0  0  0  0  0  0  0
    1.9140    5.4750   42.9840 O   0  0  0  0  0  0  0  0  0  0  0  0
    4.4050    9.3360   44.0430 C   0  0  0  0  0  0  0  0  0  0  0  0
    5.1950    9.6750   42.9190 O   0  0  0  0  0  0  0  0  0  0  0  0
    1.1820    7.6820   42.2780 O   0  5  0  0  0  0  0  0  0  0  0  0
    4.2280    7.8230   44.0500 C   0  0  0  0  0  0  0  0  0  0  0  0
    2.8600    7.4850   44.0020 O   0  0  0  0  0  0  0  0  0  0  0  0
    3.3720    6.9090   41.6910 O   0  0  0  0  0  0  0  0  0  0  0  0
    4.8560   13.7980   43.6550 H   0  0  0  0  0  0  0  0  0  0  0  0
    2.2440   13.1740   44.0790 H   0  0  0  0  0  0  0  0  0  0  0  0
    2.8150   10.6270   46.3630 C   0  0  0  0  0  0  0  0  0  0  0  0
    1.6520   11.0060   47.2290 C   0  0  0  0  0  0  0  0  0  0  0  0
    0.6710   11.6440   46.4840 O   0  0  0  0  0  0  0  0  0  0  0  0
    2.0800   11.9220   48.3210 C   0  0  0  0  0  0  0  0  0  0  0  0
    1.0040   12.0940   49.1720 O   0  0  0  0  0  0  0  0  0  0  0  0
    3.2450   11.3740   49.0740 C   0  0  0  0  0  0  0  0  0  0  0  0
    3.8320   12.3880   49.8300 O   0  0  0  0  0  0  0  0  0  0  0  0
    4.2880   10.8530   48.1100 C   0  0  0  0  0  0  0  0  0  0  0  0
    3.7380    9.9800   47.1690 O   0  0  0  0  0  0  0  0  0  0  0  0
    5.4460   10.1980   48.8010 C   0  0  0  0  0  0  0  0  0  0  0  0
    6.5800   10.7380   48.7620 O   0  0  0  0  0  0  0  0  0  0  0  0
    5.2970    9.1030   49.4020 O   0  0  0  0  0  0  0  0  0  0  0  0
    0.6660   12.5770   46.6630 H   0  0  0  0  0  0  0  0  0  0  0  0
    1.2000   11.6360   49.9820 H   0  0  0  0  0  0  0  0  0  0  0  0
    4.4030   11.9370   51.0800 C   0  0  0  0  0  0  0  0  0  0  0  0
    3.3660   12.0640   52.1470 C   0  0  0  0  0  0  0  0  0  0  0  0
    2.1670   11.4080   51.7250 N   0  0  0  0  0  0  0  0  0  0  0  0
    3.0790   13.5090   52.3550 C   0  0  0  0  0  0  0  0  0  0  0  0
    2.1170   13.6710   53.3290 O   0  0  0  0  0  0  0  0  0  0  0  0
    4.3410   14.1880   52.7570 C   0  0  0  0  0  0  0  0  0  0  0  0
    4.1010   15.5320   52.9370 O   0  0  0  0  0  0  0  0  0  0  0  0
    5.3290   13.9880   51.6550 C   0  0  0  0  0  0  0  0  0  0  0  0
    5.5290   12.6360   51.4720 O   0  0  0  0  0  0  0  0  0  0  0  0
    6.6240   14.6810   51.9480 C   0  0  0  0  0  0  0  0  0  0  0  0
    6.7330   15.0280   53.2810 O   0  0  0  0  0  0  0  0  0  0  0  0
    1.8180   10.1280   52.2560 C   0  0  0  0  0  0  0  0  0  0  0  0
    2.5450    9.5830   53.0750 O   0  0  0  0  0  0  0  0  0  0  0  0
    6.3720   16.7920   54.8650 O   0  0  0  0  0  0  0  0  0  0  0  0
    0.5610    9.4660   51.7990 C   0  0  0  0  0  0  0  0  0  0  0  0
    6.6180   17.2450   52.5340 O   0  5  0  0  0  0  0  0  0  0  0  0
    8.4870   16.5310   53.8620 O   0  0  0  0  0  0  0  0  0  0  0  0
    7.0620   16.4210   53.6570 S   0  0  0  0  0  0  0  0  0  0  0  0
    1.5570   11.8570   51.0420 H   0  0  0  0  0  0  0  0  0  0  0  0
    1.3190   13.2190   53.0840 H   0  0  0  0  0  0  0  0  0  0  0  0
    3.4660   15.6490   53.6340 H   0  0  0  0  0  0  0  0  0  0  0  0
  1  9  1  0  0  0  0
  1  2  1  0  0  0  0
  2  3  1  0  0  0  0
  3 13  1  0  0  0  0
  2  4  1  0  0  0  0
  4  5  1  0  0  0  0
  5 14  1  0  0  0  0
  4  6  1  0  0  0  0
  6  8  1  0  0  0  0
  6  7  1  0  0  0  0
  8 10  1  0  0  0  0
  8  9  1  0  0  0  0
 10 11  4  0  0  0  0
 10 12  4  0  0  0  0
  7 15  1  0  0  0  0
 15 29  1  0  0  0  0
 16 17  1  0  0  0  0
 17 20  2  0  0  0  0
 17 24  2  0  0  0  0
 15 18  1  0  0  0  0
 18 19  1  0  0  0  0
 17 19  1  0  0  0  0
 19 34  1  0  0  0  0
 21 27  1  0  0  0  0
 21 30  1  0  0  0  0
 21 33  2  0  0  0  0
 18 22  1  0  0  0  0
 22 23  1  0  0  0  0
 23 35  1  0  0  0  0
 22 25  1  0  0  0  0
 25 28  1  0  0  0  0
 25 26  1  0  0  0  0
 28 31  1  0  0  0  0
 28 29  1  0  0  0  0
 31 32  1  0  0  0  0
 21 32  1  0  0  0  0
 26 36  1  0  0  0  0
 36 47  1  0  0  0  0
 36 38  1  0  0  0  0
 38 39  1  0  0  0  0
 39 51  1  0  0  0  0
 38 41  1  0  0  0  0
 41 42  1  0  0  0  0
 42 52  1  0  0  0  0
 41 44  1  0  0  0  0
 44 46  1  0  0  0  0
 44 45  1  0  0  0  0
 46 48  1  0  0  0  0
 46 47  1  0  0  0  0
 48 49  4  0  0  0  0
 48 50  4  0  0  0  0
 37 51  1  0  0  0  0
 40 51  1  0  0  0  0
 43 51  2  0  0  0  0
 45 53  1  0  0  0  0
 53 56  1  0  0  0  0
 53 67  1  0  0  0  0
 54 55  1  0  0  0  0
 55 58  2  0  0  0  0
 55 62  2  0  0  0  0
 56 57  1  0  0  0  0
 56 60  1  0  0  0  0
 55 57  1  0  0  0  0
 57 72  1  0  0  0  0
 59 65  1  0  0  0  0
 59 68  1  0  0  0  0
 59 71  2  0  0  0  0
 60 61  1  0  0  0  0
 60 63  1  0  0  0  0
 61 73  1  0  0  0  0
 63 64  1  0  0  0  0
 63 66  1  0  0  0  0
 64 74  1  0  0  0  0
 66 67  1  0  0  0  0
 66 69  1  0  0  0  0
 69 70  1  0  0  0  0
 59 70  1  0  0  0  0
 74 75  1  0  0  0  0
 74 82  1  0  0  0  0
 75 76  1  0  0  0  0
 75 77  1  0  0  0  0
 76 86  1  0  0  0  0
 77 78  1  0  0  0  0
 77 79  1  0  0  0  0
 78 87  1  0  0  0  0
 79 80  1  0  0  0  0
 79 81  1  0  0  0  0
 80 88  1  0  0  0  0
 81 82  1  0  0  0  0
 81 83  1  0  0  0  0
 83 84  4  0  0  0  0
 83 85  4  0  0  0  0
 88 89  1  0  0  0  0
 88 96  1  0  0  0  0
 89 90  1  0  0  0  0
 89 91  1  0  0  0  0
 90 99  1  0  0  0  0
 90106  1  0  0  0  0
 91 92  1  0  0  0  0
 91 93  1  0  0  0  0
 92107  1  0  0  0  0
 93 94  1  0  0  0  0
 93 95  1  0  0  0  0
 94108  1  0  0  0  0
 95 96  1  0  0  0  0
 95 97  1  0  0  0  0
 97 98  1  0  0  0  0
 98105  1  0  0  0  0
 99100  2  0  0  0  0
 99102  1  0  0  0  0
101105  1  0  0  0  0
103105  1  0  0  0  0
104105  2  0  0  0  0
M  END
$$$$
Run_1_Vina
  PyMOL2.5          3D                             0

108113  0  0  0  0  0  0  0  0999 V2000
   21.0360   11.9230   44.7700 C   0  0  0  0  0  0  0  0  0  0  0  0
   20.8500   12.2190   46.2180 C   0  0  0  0  0  0  0  0  0  0  0  0
   21.6580   11.3650   46.9440 O   0  0  0  0  0  0  0  0  0  0  0  0
   19.4340   12.0280   46.6360 C   0  0  0  0  0  0  0  0  0  0  0  0
   19.2940   12.5390   47.9120 O   0  0  0  0  0  0  0  0  0  0  0  0
   18.4820   12.7170   45.7160 C   0  0  0  0  0  0  0  0  0  0  0  0
   17.1990   12.2510   45.9560 O   0  0  0  0  0  0  0  0  0  0  0  0
   18.8340   12.4260   44.2800 C   0  0  0  0  0  0  0  0  0  0  0  0
   20.1720   12.7170   44.0460 O   0  0  0  0  0  0  0  0  0  0  0  0
   17.9930   13.2060   43.3150 C   0  0  0  0  0  0  0  0  0  0  0  0
   17.9450   14.4610   43.4000 O   0  0  0  0  0  0  0  0  0  0  0  0
   17.3290   12.6070   42.4270 O   0  0  0  0  0  0  0  0  0  0  0  0
   21.1290   10.9520   47.6160 H   0  0  0  0  0  0  0  0  0  0  0  0
   18.5330   13.1090   47.9160 H   0  0  0  0  0  0  0  0  0  0  0  0
   16.3550   13.2420   46.5850 C   0  0  0  0  0  0  0  0  0  0  0  0
   15.7040   13.1070   50.4430 O   0  0  0  0  0  0  0  0  0  0  0  0
   16.4700   11.9160   50.0940 S   0  0  0  0  0  0  0  0  0  0  0  0
   15.5290   12.5660   47.6800 C   0  0  0  0  0  0  0  0  0  0  0  0
   16.3700   11.7230   48.5090 N   0  0  0  0  0  0  0  0  0  0  0  0
   15.8880   10.7250   50.7060 O   0  0  0  0  0  0  0  0  0  0  0  0
   14.5620   15.9030   42.6530 S   0  0  0  0  0  0  0  0  0  0  0  0
   14.4390   11.6680   47.0890 C   0  0  0  0  0  0  0  0  0  0  0  0
   13.5610   11.2650   48.1120 O   0  0  0  0  0  0  0  0  0  0  0  0
   17.8930   12.0660   50.3830 O   0  0  0  0  0  0  0  0  0  0  0  0
   13.6520   12.3230   45.9590 C   0  0  0  0  0  0  0  0  0  0  0  0
   12.8940   11.3020   45.3210 O   0  0  0  0  0  0  0  0  0  0  0  0
   13.3790   16.6490   42.2260 O   0  0  0  0  0  0  0  0  0  0  0  0
   14.6300   12.9840   44.9880 C   0  0  0  0  0  0  0  0  0  0  0  0
   15.4890   13.8900   45.6750 O   0  0  0  0  0  0  0  0  0  0  0  0
   15.6640   16.7910   43.0020 O   0  5  0  0  0  0  0  0  0  0  0  0
   13.9170   13.7120   43.8530 C   0  0  0  0  0  0  0  0  0  0  0  0
   14.1590   15.0990   43.9340 O   0  0  0  0  0  0  0  0  0  0  0  0
   14.9850   14.9320   41.6540 O   0  0  0  0  0  0  0  0  0  0  0  0
   16.9160   10.9840   48.0670 H   0  0  0  0  0  0  0  0  0  0  0  0
   12.9540   10.6190   47.7700 H   0  0  0  0  0  0  0  0  0  0  0  0
   11.8060   10.8000   46.1360 C   0  0  0  0  0  0  0  0  0  0  0  0
    9.0800   12.8280   49.2360 O   0  0  0  0  0  0  0  0  0  0  0  0
   10.7530   11.8550   46.2900 C   0  0  0  0  0  0  0  0  0  0  0  0
    9.9620   11.5900   47.3930 O   0  0  0  0  0  0  0  0  0  0  0  0
   10.8420   11.2290   49.5470 O   0  5  0  0  0  0  0  0  0  0  0  0
    9.9080   12.0170   45.0450 C   0  0  0  0  0  0  0  0  0  0  0  0
   10.5910   12.8550   44.1850 O   0  0  0  0  0  0  0  0  0  0  0  0
   11.2450   13.3120   48.4660 O   0  0  0  0  0  0  0  0  0  0  0  0
    9.5990   10.7400   44.3140 C   0  0  0  0  0  0  0  0  0  0  0  0
    8.4180   10.1430   44.7620 O   0  0  0  0  0  0  0  0  0  0  0  0
   10.7650    9.7920   44.3930 C   0  0  0  0  0  0  0  0  0  0  0  0
   11.2190    9.6420   45.6830 O   0  0  0  0  0  0  0  0  0  0  0  0
   10.3540    8.4460   43.8860 C   0  0  0  0  0  0  0  0  0  0  0  0
   10.0420    8.2890   42.6770 O   0  0  0  0  0  0  0  0  0  0  0  0
   10.3090    7.4660   44.6780 O   0  0  0  0  0  0  0  0  0  0  0  0
   10.2770   12.2610   48.6680 S   0  0  0  0  0  0  0  0  0  0  0  0
   10.5290   12.4830   43.3140 H   0  0  0  0  0  0  0  0  0  0  0  0
    7.3530   11.1190   44.8950 C   0  0  0  0  0  0  0  0  0  0  0  0
    6.3410   10.4710   49.1730 O   0  0  0  0  0  0  0  0  0  0  0  0
    5.4690   10.3550   48.0180 S   0  0  0  0  0  0  0  0  0  0  0  0
    6.0820   10.5050   45.4920 C   0  0  0  0  0  0  0  0  0  0  0  0
    6.3470    9.8760   46.7730 N   0  0  0  0  0  0  0  0  0  0  0  0
    4.8890   11.6520   47.6840 O   0  0  0  0  0  0  0  0  0  0  0  0
    4.7380   13.4470   41.4010 S   0  0  0  0  0  0  0  0  0  0  0  0
    5.4460    9.4930   44.5450 C   0  0  0  0  0  0  0  0  0  0  0  0
    4.2200    9.0420   45.0880 O   0  0  0  0  0  0  0  0  0  0  0  0
    4.4480    9.3230   48.1860 O   0  0  0  0  0  0  0  0  0  0  0  0
    5.2130   10.1190   43.1780 C   0  0  0  0  0  0  0  0  0  0  0  0
    4.8440    9.0770   42.2860 O   0  0  0  0  0  0  0  0  0  0  0  0
    4.8600   14.7340   40.7290 O   0  0  0  0  0  0  0  0  0  0  0  0
    6.5200   10.7670   42.7190 C   0  0  0  0  0  0  0  0  0  0  0  0
    6.9980   11.7100   43.6600 O   0  0  0  0  0  0  0  0  0  0  0  0
    4.0050   12.4620   40.6190 O   0  5  0  0  0  0  0  0  0  0  0  0
    6.3690   11.4780   41.3800 C   0  0  0  0  0  0  0  0  0  0  0  0
    6.1850   12.8630   41.5740 O   0  0  0  0  0  0  0  0  0  0  0  0
    4.1640   13.5730   42.7350 O   0  0  0  0  0  0  0  0  0  0  0  0
    7.0650    9.1580   46.8750 H   0  0  0  0  0  0  0  0  0  0  0  0
    3.6450    8.7610   44.3860 H   0  0  0  0  0  0  0  0  0  0  0  0
    3.4460    9.0810   41.9260 C   0  0  0  0  0  0  0  0  0  0  0  0
    2.8390    7.7380   42.1990 C   0  0  0  0  0  0  0  0  0  0  0  0
    3.5450    6.7380   41.5470 O   0  0  0  0  0  0  0  0  0  0  0  0
    1.4260    7.6910   41.7340 C   0  0  0  0  0  0  0  0  0  0  0  0
    0.8810    6.4960   42.1650 O   0  0  0  0  0  0  0  0  0  0  0  0
    0.6330    8.8370   42.2670 C   0  0  0  0  0  0  0  0  0  0  0  0
   -0.5530    8.9620   41.5440 O   0  0  0  0  0  0  0  0  0  0  0  0
    1.4090   10.1250   42.1070 C   0  0  0  0  0  0  0  0  0  0  0  0
    2.7030   10.0200   42.6230 O   0  0  0  0  0  0  0  0  0  0  0  0
    0.7110   11.3060   42.7120 C   0  0  0  0  0  0  0  0  0  0  0  0
    0.6640   11.4280   43.9620 O   0  0  0  0  0  0  0  0  0  0  0  0
    0.1570   12.1670   41.9800 O   0  0  0  0  0  0  0  0  0  0  0  0
    3.5070    6.8570   40.6050 H   0  0  0  0  0  0  0  0  0  0  0  0
    0.1200    6.7000   42.6960 H   0  0  0  0  0  0  0  0  0  0  0  0
   -0.5440    8.2730   40.2720 C   0  0  0  0  0  0  0  0  0  0  0  0
   -1.1510    9.1690   39.2440 C   0  0  0  0  0  0  0  0  0  0  0  0
   -0.5000   10.4430   39.2790 N   0  0  0  0  0  0  0  0  0  0  0  0
   -2.5910    9.3520   39.5710 C   0  0  0  0  0  0  0  0  0  0  0  0
   -3.1900   10.1830   38.6470 O   0  0  0  0  0  0  0  0  0  0  0  0
   -3.2500    8.0180   39.5680 C   0  0  0  0  0  0  0  0  0  0  0  0
   -4.5810    8.1630   39.8860 O   0  0  0  0  0  0  0  0  0  0  0  0
   -2.5660    7.1780   40.5970 C   0  0  0  0  0  0  0  0  0  0  0  0
   -1.2290    7.0730   40.2750 O   0  0  0  0  0  0  0  0  0  0  0  0
   -3.1940    5.8230   40.7030 C   0  0  0  0  0  0  0  0  0  0  0  0
   -3.0220    5.0830   39.5480 O   0  0  0  0  0  0  0  0  0  0  0  0
    0.6260   10.7030   38.4390 C   0  0  0  0  0  0  0  0  0  0  0  0
    1.0430    9.8360   37.6830 O   0  0  0  0  0  0  0  0  0  0  0  0
   -1.6140    3.2470   38.9180 O   0  0  0  0  0  0  0  0  0  0  0  0
    1.2850   12.0400   38.4950 C   0  0  0  0  0  0  0  0  0  0  0  0
   -3.9880    3.0150   39.0220 O   0  5  0  0  0  0  0  0  0  0  0  0
   -2.6770    3.2420   41.0200 O   0  0  0  0  0  0  0  0  0  0  0  0
   -2.8060    3.6210   39.6330 S   0  0  0  0  0  0  0  0  0  0  0  0
   -0.8430   11.1700   39.9070 H   0  0  0  0  0  0  0  0  0  0  0  0
   -2.6790   10.2090   37.8470 H   0  0  0  0  0  0  0  0  0  0  0  0
   -4.7650    7.7010   40.6960 H   0  0  0  0  0  0  0  0  0  0  0  0
  1  9  1  0  0  0  0
  1  2  1  0  0  0  0
  2  3  1  0  0  0  0
  3 13  1  0  0  0  0
  2  4  1  0  0  0  0
  4  5  1  0  0  0  0
  5 14  1  0  0  0  0
  4  6  1  0  0  0  0
  6  8  1  0  0  0  0
  6  7  1  0  0  0  0
  8 10  1  0  0  0  0
  8  9  1  0  0  0  0
 10 11  4  0  0  0  0
 10 12  4  0  0  0  0
  7 15  1  0  0  0  0
 15 29  1  0  0  0  0
 16 17  1  0  0  0  0
 17 20  2  0  0  0  0
 17 24  2  0  0  0  0
 15 18  1  0  0  0  0
 18 19  1  0  0  0  0
 17 19  1  0  0  0  0
 19 34  1  0  0  0  0
 21 27  1  0  0  0  0
 21 30  1  0  0  0  0
 21 33  2  0  0  0  0
 18 22  1  0  0  0  0
 22 23  1  0  0  0  0
 23 35  1  0  0  0  0
 22 25  1  0  0  0  0
 25 28  1  0  0  0  0
 25 26  1  0  0  0  0
 28 31  1  0  0  0  0
 28 29  1  0  0  0  0
 31 32  1  0  0  0  0
 21 32  1  0  0  0  0
 26 36  1  0  0  0  0
 36 47  1  0  0  0  0
 36 38  1  0  0  0  0
 38 39  1  0  0  0  0
 39 51  1  0  0  0  0
 38 41  1  0  0  0  0
 41 42  1  0  0  0  0
 42 52  1  0  0  0  0
 41 44  1  0  0  0  0
 44 46  1  0  0  0  0
 44 45  1  0  0  0  0
 46 48  1  0  0  0  0
 46 47  1  0  0  0  0
 48 49  4  0  0  0  0
 48 50  4  0  0  0  0
 37 51  1  0  0  0  0
 40 51  1  0  0  0  0
 43 51  2  0  0  0  0
 45 53  1  0  0  0  0
 53 56  1  0  0  0  0
 53 67  1  0  0  0  0
 54 55  1  0  0  0  0
 55 58  2  0  0  0  0
 55 62  2  0  0  0  0
 56 57  1  0  0  0  0
 56 60  1  0  0  0  0
 55 57  1  0  0  0  0
 57 72  1  0  0  0  0
 59 65  1  0  0  0  0
 59 68  1  0  0  0  0
 59 71  2  0  0  0  0
 60 61  1  0  0  0  0
 60 63  1  0  0  0  0
 61 73  1  0  0  0  0
 63 64  1  0  0  0  0
 63 66  1  0  0  0  0
 64 74  1  0  0  0  0
 66 67  1  0  0  0  0
 66 69  1  0  0  0  0
 69 70  1  0  0  0  0
 59 70  1  0  0  0  0
 74 75  1  0  0  0  0
 74 82  1  0  0  0  0
 75 76  1  0  0  0  0
 75 77  1  0  0  0  0
 76 86  1  0  0  0  0
 77 78  1  0  0  0  0
 77 79  1  0  0  0  0
 78 87  1  0  0  0  0
 79 80  1  0  0  0  0
 79 81  1  0  0  0  0
 80 88  1  0  0  0  0
 81 82  1  0  0  0  0
 81 83  1  0  0  0  0
 83 84  4  0  0  0  0
 83 85  4  0  0  0  0
 88 89  1  0  0  0  0
 88 96  1  0  0  0  0
 89 90  1  0  0  0  0
 89 91  1  0  0  0  0
 90 99  1  0  0  0  0
 90106  1  0  0  0  0
 91 92  1  0  0  0  0
 91 93  1  0  0  0  0
 92107  1  0  0  0  0
 93 94  1  0  0  0  0
 93 95  1  0  0  0  0
 94108  1  0  0  0  0
 95 96  1  0  0  0  0
 95 97  1  0  0  0  0
 97 98  1  0  0  0  0
 98105  1  0  0  0  0
 99100  2  0  0  0  0
 99102  1  0  0  0  0
101105  1  0  0  0  0
103105  1  0  0  0  0
104105  2  0  0  0  0
M  END
$$$$
