MODEL 1
REMARK VINA RESULT:      -8.6      0.000      0.000
REMARK WARNING: 32 MAX_TORS EXCEEDED!!!
REMARK  38 active torsions:
REMARK  status: ('A' for Active; 'I' for Inactive)
REMARK    1  A    between atoms: C2_2  and  O2_3 
REMARK    2  A    between atoms: C3_5  and  O3_6 
REMARK    3  A    between atoms: C4_8  and  O4_9 
REMARK    4  A    between atoms: O4_9  and  C1_15 
REMARK    5  A    between atoms: C5_10  and  C6_12 
REMARK    6  A    between atoms: S1_17  and  N2_19 
REMARK    7  A    between atoms: C2_18  and  N2_19 
REMARK    8  A    between atoms: S2_22  and  O6_34 
REMARK    9  A    between atoms: C3_23  and  O3_24 
REMARK   10  A    between atoms: C4_27  and  O4_28 
REMARK   11  A    between atoms: O4_28  and  C1_36 
REMARK   12  A    between atoms: C5_30  and  C6_33 
REMARK   13  A    between atoms: C6_33  and  O6_34 
REMARK   14  A    between atoms: C2_38  and  O2_39 
REMARK   15  A    between atoms: O2_39  and  S_52 
REMARK   16  A    between atoms: C3_41  and  O3_42 
REMARK   17  A    between atoms: C4_45  and  O4_46 
REMARK   18  A    between atoms: O4_46  and  C1_53 
REMARK   19  A    between atoms: C5_47  and  C6_49 
REMARK   20  A    between atoms: S1_55  and  N2_57 
REMARK   21  A    between atoms: C2_56  and  N2_57 
REMARK   22  A    between atoms: S2_60  and  O6_72 
REMARK   23  A    between atoms: C3_61  and  O3_62 
REMARK   24  A    between atoms: C4_65  and  O4_66 
REMARK   25  A    between atoms: O4_66  and  C1_74 
REMARK   26  A    between atoms: C5_68  and  C6_71 
REMARK   27  A    between atoms: C6_71  and  O6_72 
REMARK   28  A    between atoms: C2_75  and  O2_76 
REMARK   29  A    between atoms: C3_78  and  O3_79 
REMARK   30  A    between atoms: C4_81  and  O4_82 
REMARK   31  A    between atoms: O4_82  and  C1_88 
REMARK   32  A    between atoms: C5_83  and  C6_85 
REMARK   33  A    between atoms: C2_89  and  N2_90 
REMARK       I    between atoms: N2_90  and  C7_102 
REMARK   34  A    between atoms: C3_92  and  O3_93 
REMARK   35  A    between atoms: C4_95  and  O4_96 
REMARK   36  A    between atoms: C5_98  and  C6_100 
REMARK   37  A    between atoms: C6_100  and  O6_101 
REMARK   38  A    between atoms: O6_101  and  S_108 
ROOT
HETATM    1  C1  SGN C   4      12.048  10.092  45.697  1.00 25.95     0.287 C 
HETATM    2  C2  SGN C   4      13.175   9.073  45.895  1.00 24.33     0.182 C 
HETATM    3  C3  SGN C   4      14.355   9.676  46.651  1.00 24.72     0.178 C 
HETATM    4  C4  SGN C   4      14.825  10.951  45.969  1.00 24.11     0.186 C 
HETATM    5  C5  SGN C   4      13.611  11.854  45.751  1.00 25.01     0.181 C 
HETATM    6  O5  SGN C   4      12.596  11.201  45.012  1.00 24.61    -0.349 OA
ENDROOT
BRANCH   1   7
HETATM    7  O4  IDS C   3      11.424  10.463  46.953  1.00 24.52    -0.348 OA
BRANCH   7   8
HETATM    8  C4  IDS C   3      10.716  11.661  46.832  1.00 32.57     0.195 C 
HETATM    9  C3  IDS C   3      10.019  11.784  45.506  1.00 36.22     0.185 C 
HETATM   10  C2  IDS C   3       8.610  11.235  45.468  1.00 37.49     0.231 C 
HETATM   11  C1  IDS C   3       7.860  11.489  46.740  1.00 32.35     0.294 C 
HETATM   12  O5  IDS C   3       8.619  11.059  47.803  1.00 29.95    -0.340 OA
HETATM   13  C5  IDS C   3       9.737  11.845  47.960  1.00 31.73     0.257 C 
BRANCH   9  14
HETATM   14  O3  IDS C   3       9.952  13.123  45.172  1.00 35.64    -0.390 OA
ATOM     15  H3  IDS C   3       9.440  13.193  44.375  1.00  0.00     0.210 HD
ENDBRANCH   9  14
BRANCH  10  16
HETATM   16  O2  IDS C   3       8.614   9.883  45.172  1.00 41.30    -0.244 OA
BRANCH  16  17
HETATM   17  S   IDS C   3       8.411   9.464  43.773  1.00 46.67     0.252 S 
HETATM   18  O1S IDS C   3       9.684   9.250  43.133  1.00 45.84    -0.572 OA
HETATM   19  O2S IDS C   3       7.630   8.221  43.826  1.00 43.53    -0.572 OA
HETATM   20  O3S IDS C   3       7.679  10.469  43.040  1.00 50.85    -0.572 OA
ENDBRANCH  16  17
ENDBRANCH  10  16
BRANCH  11  21
HETATM   21  O4  SGN C   2       7.443  12.876  46.799  1.00 35.63    -0.348 OA
BRANCH  21  22
HETATM   22  C4  SGN C   2       6.166  13.106  46.217  1.00 34.14     0.186 C 
HETATM   23  C3  SGN C   2       6.326  12.987  44.705  1.00 36.01     0.178 C 
HETATM   24  C2  SGN C   2       4.997  12.910  43.950  1.00 38.29     0.182 C 
HETATM   25  C1  SGN C   2       4.034  11.920  44.607  1.00 40.25     0.287 C 
HETATM   26  O5  SGN C   2       3.913  12.224  45.983  1.00 40.44    -0.349 OA
HETATM   27  C5  SGN C   2       5.140  12.079  46.692  1.00 39.12     0.181 C 
BRANCH  23  28
HETATM   28  O3  SGN C   2       7.077  14.073  44.216  1.00 37.94    -0.391 OA
ATOM     29  H3  SGN C   2       6.881  14.847  44.731  1.00  0.00     0.210 HD
ENDBRANCH  23  28
BRANCH  24  30
HETATM   30  N2  SGN C   2       5.302  12.502  42.591  1.00 38.07    -0.289 N 
ATOM     31  H2  SGN C   2       5.804  11.626  42.441  1.00  0.00     0.175 HD
BRANCH  30  32
HETATM   32  S1  SGN C   2       4.878  13.377  41.323  1.00 51.36     0.205 S 
HETATM   33  O1S SGN C   2       5.630  14.626  41.376  1.00 53.59    -0.578 OA
HETATM   34  O2S SGN C   2       5.234  12.608  40.135  1.00 50.52    -0.578 OA
HETATM   35  O3S SGN C   2       3.440  13.589  41.454  1.00 54.39    -0.578 OA
ENDBRANCH  30  32
ENDBRANCH  24  30
BRANCH  25  36
HETATM   36  O4  BDP C   1       4.508  10.576  44.364  1.00 42.04    -0.348 OA
BRANCH  36  37
HETATM   37  C4  BDP C   1       3.665   9.855  43.533  1.00 48.48     0.195 C 
HETATM   38  C3  BDP C   1       4.486   9.056  42.576  1.00 51.01     0.181 C 
HETATM   39  C2  BDP C   1       3.679   8.012  41.885  1.00 53.01     0.173 C 
HETATM   40  C1  BDP C   1       2.874   7.217  42.852  1.00 54.14     0.203 C 
HETATM   41  O5  BDP C   1       2.085   8.081  43.582  1.00 54.15    -0.370 OA
HETATM   42  C5  BDP C   1       2.817   8.946  44.385  1.00 51.87     0.253 C 
BRANCH  38  43
HETATM   43  O3  BDP C   1       5.015   9.892  41.612  1.00 52.92    -0.390 OA
ATOM     44  H3  BDP C   1       4.556   9.724  40.797  1.00  0.00     0.210 HD
ENDBRANCH  38  43
BRANCH  39  45
HETATM   45  O2  BDP C   1       4.527   7.153  41.214  1.00 53.19    -0.391 OA
ATOM     46  H2  BDP C   1       4.076   6.327  41.087  1.00  0.00     0.210 HD
ENDBRANCH  39  45
BRANCH  42  47
HETATM   47  C6  BDP C   1       1.872   9.705  45.266  1.00 51.57     0.205 C 
HETATM   48  O6A BDP C   1       0.950  10.389  44.752  1.00 52.65    -0.646 OA
HETATM   49  O6B BDP C   1       2.006   9.666  46.519  1.00 51.09    -0.646 OA
ENDBRANCH  42  47
ENDBRANCH  36  37
ENDBRANCH  25  36
BRANCH  27  50
HETATM   50  C6  SGN C   2       4.880  12.169  48.192  1.00 42.92     0.227 C 
BRANCH  50  51
HETATM   51  O6  SGN C   2       4.190  11.023  48.639  1.00 46.75    -0.254 OA
BRANCH  51  52
HETATM   52  S2  SGN C   2       4.985   9.751  49.084  1.00 56.56     0.251 S 
HETATM   53  O4S SGN C   2       4.160   9.054  50.070  1.00 58.52    -0.572 OA
HETATM   54  O5S SGN C   2       5.227   8.930  47.905  1.00 53.95    -0.572 OA
HETATM   55  O6S SGN C   2       6.244  10.210  49.654  1.00 54.13    -0.572 OA
ENDBRANCH  51  52
ENDBRANCH  50  51
ENDBRANCH  27  50
ENDBRANCH  21  22
ENDBRANCH  11  21
BRANCH  13  56
HETATM   56  C6  IDS C   3      10.387  11.472  49.255  1.00 33.29     0.206 C 
HETATM   57  O6A IDS C   3      11.463  12.021  49.608  1.00 34.35    -0.646 OA
HETATM   58  O6B IDS C   3       9.859  10.596  49.991  1.00 34.80    -0.646 OA
ENDBRANCH  13  56
ENDBRANCH   7   8
ENDBRANCH   1   7
BRANCH   2  59
HETATM   59  N2  SGN C   4      12.704   7.888  46.588  1.00 24.47    -0.289 N 
ATOM     60  H2  SGN C   4      11.914   7.928  47.233  1.00  0.00     0.175 HD
BRANCH  59  61
HETATM   61  S1  SGN C   4      13.473   6.518  46.301  1.00 23.01     0.205 S 
HETATM   62  O1S SGN C   4      14.319   6.707  45.136  1.00 23.82    -0.578 OA
HETATM   63  O2S SGN C   4      14.282   6.205  47.474  1.00 21.15    -0.578 OA
HETATM   64  O3S SGN C   4      12.423   5.528  46.076  1.00 24.34    -0.578 OA
ENDBRANCH  59  61
ENDBRANCH   2  59
BRANCH   3  65
HETATM   65  O3  SGN C   4      15.411   8.736  46.707  1.00 24.01    -0.391 OA
ATOM     66  H3  SGN C   4      15.059   7.873  46.893  1.00  0.00     0.210 HD
ENDBRANCH   3  65
BRANCH   5  67
HETATM   67  C6  SGN C   4      13.974  13.137  45.014  1.00 29.42     0.227 C 
BRANCH  67  68
HETATM   68  O6  SGN C   4      12.813  13.882  44.717  1.00 33.38    -0.254 OA
BRANCH  68  69
HETATM   69  S2  SGN C   4      12.565  14.298  43.224  1.00 42.75     0.251 S 
HETATM   70  O4S SGN C   4      11.289  13.727  42.814  1.00 44.95    -0.572 OA
HETATM   71  O5S SGN C   4      12.569  15.753  43.213  1.00 42.87    -0.572 OA
HETATM   72  O6S SGN C   4      13.679  13.776  42.442  1.00 40.27    -0.572 OA
ENDBRANCH  68  69
ENDBRANCH  67  68
ENDBRANCH   5  67
BRANCH   4  73
HETATM   73  O4  SGN C   4      15.756  11.583  46.835  1.00 25.89    -0.348 OA
BRANCH  73  74
HETATM   74  C1  BDP C   5      17.073  11.743  46.267  1.00 28.36     0.292 C 
HETATM   75  C2  BDP C   5      17.999  10.695  46.805  1.00 31.13     0.204 C 
HETATM   76  C3  BDP C   5      19.387  10.910  46.311  1.00 33.85     0.183 C 
HETATM   77  C4  BDP C   5      19.427  11.053  44.827  1.00 31.81     0.195 C 
HETATM   78  C5  BDP C   5      18.337  11.995  44.366  1.00 27.14     0.257 C 
HETATM   79  O5  BDP C   5      17.089  11.640  44.885  1.00 24.75    -0.340 OA
BRANCH  75  80
HETATM   80  O2  BDP C   5      18.021  10.722  48.191  1.00 34.37    -0.388 OA
ATOM     81  H2  BDP C   5      18.844  10.382  48.522  1.00  0.00     0.210 HD
ENDBRANCH  75  80
BRANCH  76  82
HETATM   82  O3  BDP C   5      20.146   9.823  46.703  1.00 34.34    -0.390 OA
ATOM     83  H3  BDP C   5      19.775   9.049  46.296  1.00  0.00     0.210 HD
ENDBRANCH  76  82
BRANCH  77  84
HETATM   84  O4  BDP C   5      20.652  11.599  44.442  1.00 33.34    -0.348 OA
BRANCH  84  85
HETATM   85  C1  NGY C   6      21.294  12.389  45.470  1.00 35.33     0.286 C 
HETATM   86  C2  NGY C   6      21.815  13.642  44.849  1.00 39.33     0.170 C 
HETATM   87  C3  NGY C   6      22.907  13.280  43.903  1.00 39.13     0.177 C 
HETATM   88  C4  NGY C   6      23.977  12.579  44.664  1.00 37.06     0.180 C 
HETATM   89  C5  NGY C   6      23.368  11.360  45.277  1.00 32.98     0.181 C 
HETATM   90  O5  NGY C   6      22.337  11.744  46.109  1.00 32.46    -0.349 OA
BRANCH  86  91
HETATM   91  N2  NGY C   6      20.765  14.285  44.120  1.00 39.90    -0.349 N 
HETATM   92  C7  NGY C   6      20.103  15.428  44.664  1.00 44.73     0.214 C 
HETATM   93  O7  NGY C   6      20.431  15.866  45.758  1.00 46.19    -0.274 OA
HETATM   94  C8  NGY C   6      19.011  16.080  43.883  1.00 43.79     0.117 C 
ATOM     95  H2  NGY C   6      20.486  13.924  43.208  1.00  0.00     0.163 HD
ENDBRANCH  86  91
BRANCH  87  96
HETATM   96  O3  NGY C   6      23.412  14.411  43.299  1.00 44.02    -0.391 OA
ATOM     97  H3  NGY C   6      23.546  15.097  43.943  1.00  0.00     0.210 HD
ENDBRANCH  87  96
BRANCH  88  98
HETATM   98  O4  NGY C   6      24.990  12.219  43.804  1.00 37.39    -0.390 OA
ATOM     99  H4  NGY C   6      24.626  12.042  42.945  1.00  0.00     0.210 HD
ENDBRANCH  88  98
BRANCH  89 100
HETATM  100  C6  NGY C   6      24.385  10.559  46.028  1.00 31.91     0.227 C 
BRANCH 100 101
HETATM  101  O6  NGY C   6      23.879   9.340  46.441  1.00 36.15    -0.254 OA
BRANCH 101 102
HETATM  102  S   NGY C   6      24.761   8.153  46.490  1.00 34.85     0.251 S 
HETATM  103  O7A NGY C   6      25.874   8.391  47.371  1.00 33.41    -0.572 OA
HETATM  104  O8  NGY C   6      25.221   7.948  45.117  1.00 30.21    -0.572 OA
HETATM  105  O9  NGY C   6      24.002   7.021  46.966  1.00 38.01    -0.572 OA
ENDBRANCH 101 102
ENDBRANCH 100 101
ENDBRANCH  89 100
ENDBRANCH  84  85
ENDBRANCH  77  84
BRANCH  78 106
HETATM  106  C6  BDP C   5      18.256  12.109  42.873  1.00 29.31     0.206 C 
HETATM  107  O6A BDP C   5      18.052  13.231  42.345  1.00 32.10    -0.646 OA
HETATM  108  O6B BDP C   5      18.372  11.089  42.146  1.00 26.46    -0.646 OA
ENDBRANCH  78 106
ENDBRANCH  73  74
ENDBRANCH   4  73
TORSDOF 38
ENDMDL
MODEL 2
REMARK VINA RESULT:      -8.5      1.105      1.545
REMARK WARNING: 32 MAX_TORS EXCEEDED!!!
REMARK  38 active torsions:
REMARK  status: ('A' for Active; 'I' for Inactive)
REMARK    1  A    between atoms: C2_2  and  O2_3 
REMARK    2  A    between atoms: C3_5  and  O3_6 
REMARK    3  A    between atoms: C4_8  and  O4_9 
REMARK    4  A    between atoms: O4_9  and  C1_15 
REMARK    5  A    between atoms: C5_10  and  C6_12 
REMARK    6  A    between atoms: S1_17  and  N2_19 
REMARK    7  A    between atoms: C2_18  and  N2_19 
REMARK    8  A    between atoms: S2_22  and  O6_34 
REMARK    9  A    between atoms: C3_23  and  O3_24 
REMARK   10  A    between atoms: C4_27  and  O4_28 
REMARK   11  A    between atoms: O4_28  and  C1_36 
REMARK   12  A    between atoms: C5_30  and  C6_33 
REMARK   13  A    between atoms: C6_33  and  O6_34 
REMARK   14  A    between atoms: C2_38  and  O2_39 
REMARK   15  A    between atoms: O2_39  and  S_52 
REMARK   16  A    between atoms: C3_41  and  O3_42 
REMARK   17  A    between atoms: C4_45  and  O4_46 
REMARK   18  A    between atoms: O4_46  and  C1_53 
REMARK   19  A    between atoms: C5_47  and  C6_49 
REMARK   20  A    between atoms: S1_55  and  N2_57 
REMARK   21  A    between atoms: C2_56  and  N2_57 
REMARK   22  A    between atoms: S2_60  and  O6_72 
REMARK   23  A    between atoms: C3_61  and  O3_62 
REMARK   24  A    between atoms: C4_65  and  O4_66 
REMARK   25  A    between atoms: O4_66  and  C1_74 
REMARK   26  A    between atoms: C5_68  and  C6_71 
REMARK   27  A    between atoms: C6_71  and  O6_72 
REMARK   28  A    between atoms: C2_75  and  O2_76 
REMARK   29  A    between atoms: C3_78  and  O3_79 
REMARK   30  A    between atoms: C4_81  and  O4_82 
REMARK   31  A    between atoms: O4_82  and  C1_88 
REMARK   32  A    between atoms: C5_83  and  C6_85 
REMARK   33  A    between atoms: C2_89  and  N2_90 
REMARK       I    between atoms: N2_90  and  C7_102 
REMARK   34  A    between atoms: C3_92  and  O3_93 
REMARK   35  A    between atoms: C4_95  and  O4_96 
REMARK   36  A    between atoms: C5_98  and  C6_100 
REMARK   37  A    between atoms: C6_100  and  O6_101 
REMARK   38  A    between atoms: O6_101  and  S_108 
ROOT
HETATM    1  C1  SGN C   4      12.120  10.052  45.604  1.00 25.95     0.287 C 
HETATM    2  C2  SGN C   4      13.271   9.113  45.977  1.00 24.33     0.182 C 
HETATM    3  C3  SGN C   4      14.278   9.792  46.901  1.00 24.72     0.178 C 
HETATM    4  C4  SGN C   4      14.757  11.101  46.292  1.00 24.11     0.186 C 
HETATM    5  C5  SGN C   4      13.530  11.918  45.886  1.00 25.01     0.181 C 
HETATM    6  O5  SGN C   4      12.687  11.200  45.004  1.00 24.61    -0.349 OA
ENDROOT
BRANCH   1   7
HETATM    7  O4  IDS C   3      11.287  10.372  46.748  1.00 24.52    -0.348 OA
BRANCH   7   8
HETATM    8  C4  IDS C   3      10.606  11.577  46.557  1.00 32.57     0.195 C 
HETATM    9  C3  IDS C   3       9.864  11.614  45.250  1.00 36.22     0.185 C 
HETATM   10  C2  IDS C   3       8.441  11.103  45.304  1.00 37.49     0.231 C 
HETATM   11  C1  IDS C   3       7.745  11.478  46.577  1.00 32.35     0.294 C 
HETATM   12  O5  IDS C   3       8.531  11.111  47.644  1.00 29.95    -0.340 OA
HETATM   13  C5  IDS C   3       9.673  11.876  47.700  1.00 31.73     0.257 C 
BRANCH   9  14
HETATM   14  O3  IDS C   3       9.818  12.924  44.813  1.00 35.64    -0.390 OA
ATOM     15  H3  IDS C   3      10.431  13.422  45.341  1.00  0.00     0.210 HD
ENDBRANCH   9  14
BRANCH  10  16
HETATM   16  O2  IDS C   3       8.400   9.733  45.117  1.00 41.30    -0.244 OA
BRANCH  16  17
HETATM   17  S   IDS C   3       8.205   9.211  43.752  1.00 46.67     0.252 S 
HETATM   18  O1S IDS C   3       7.388   8.024  43.790  1.00 45.84    -0.572 OA
HETATM   19  O2S IDS C   3       7.546  10.282  42.993  1.00 43.53    -0.572 OA
HETATM   20  O3S IDS C   3       9.472   8.890  43.142  1.00 50.85    -0.572 OA
ENDBRANCH  16  17
ENDBRANCH  10  16
BRANCH  11  21
HETATM   21  O4  SGN C   2       7.365  12.876  46.540  1.00 35.63    -0.348 OA
BRANCH  21  22
HETATM   22  C4  SGN C   2       6.080  13.097  45.973  1.00 34.14     0.186 C 
HETATM   23  C3  SGN C   2       6.222  12.981  44.459  1.00 36.01     0.178 C 
HETATM   24  C2  SGN C   2       4.885  12.894  43.721  1.00 38.29     0.182 C 
HETATM   25  C1  SGN C   2       3.938  11.895  44.388  1.00 40.25     0.287 C 
HETATM   26  O5  SGN C   2       3.831  12.196  45.765  1.00 40.44    -0.349 OA
HETATM   27  C5  SGN C   2       5.068  12.060  46.459  1.00 39.12     0.181 C 
BRANCH  23  28
HETATM   28  O3  SGN C   2       6.958  14.074  43.964  1.00 37.94    -0.391 OA
ATOM     29  H3  SGN C   2       7.857  13.805  43.812  1.00  0.00     0.210 HD
ENDBRANCH  23  28
BRANCH  24  30
HETATM   30  N2  SGN C   2       5.177  12.490  42.358  1.00 38.07    -0.289 N 
ATOM     31  H2  SGN C   2       5.702  11.629  42.200  1.00  0.00     0.175 HD
BRANCH  30  32
HETATM   32  S1  SGN C   2       4.705  13.349  41.095  1.00 51.36     0.205 S 
HETATM   33  O1S SGN C   2       5.408  14.627  41.141  1.00 53.59    -0.578 OA
HETATM   34  O2S SGN C   2       5.079  12.595  39.902  1.00 50.52    -0.578 OA
HETATM   35  O3S SGN C   2       3.261  13.503  41.241  1.00 54.39    -0.578 OA
ENDBRANCH  30  32
ENDBRANCH  24  30
BRANCH  25  36
HETATM   36  O4  BDP C   1       4.420  10.555  44.137  1.00 42.04    -0.348 OA
BRANCH  36  37
HETATM   37  C4  BDP C   1       3.561   9.821  43.334  1.00 48.48     0.195 C 
HETATM   38  C3  BDP C   1       4.363   9.038  42.347  1.00 51.01     0.181 C 
HETATM   39  C2  BDP C   1       3.550   7.981  41.683  1.00 53.01     0.173 C 
HETATM   40  C1  BDP C   1       2.794   7.170  42.676  1.00 54.14     0.203 C 
HETATM   41  O5  BDP C   1       2.016   8.019  43.435  1.00 54.15    -0.370 OA
HETATM   42  C5  BDP C   1       2.761   8.895  44.214  1.00 51.87     0.253 C 
BRANCH  38  43
HETATM   43  O3  BDP C   1       4.842   9.885  41.367  1.00 52.92    -0.390 OA
ATOM     44  H3  BDP C   1       4.095  10.269  40.922  1.00  0.00     0.210 HD
ENDBRANCH  38  43
BRANCH  39  45
HETATM   45  O2  BDP C   1       4.389   7.138  40.980  1.00 53.19    -0.391 OA
ATOM     46  H2  BDP C   1       5.160   7.630  40.722  1.00  0.00     0.210 HD
ENDBRANCH  39  45
BRANCH  42  47
HETATM   47  C6  BDP C   1       1.834   9.636  45.129  1.00 51.57     0.205 C 
HETATM   48  O6A BDP C   1       0.887  10.312  44.649  1.00 52.65    -0.646 OA
HETATM   49  O6B BDP C   1       2.007   9.589  46.377  1.00 51.09    -0.646 OA
ENDBRANCH  42  47
ENDBRANCH  36  37
ENDBRANCH  25  36
BRANCH  27  50
HETATM   50  C6  SGN C   2       4.825  12.146  47.963  1.00 42.92     0.227 C 
BRANCH  50  51
HETATM   51  O6  SGN C   2       4.162  10.987  48.419  1.00 46.75    -0.254 OA
BRANCH  51  52
HETATM   52  S2  SGN C   2       4.983   9.793  49.008  1.00 56.56     0.251 S 
HETATM   53  O4S SGN C   2       5.278   8.887  47.899  1.00 58.52    -0.572 OA
HETATM   54  O5S SGN C   2       6.199  10.328  49.607  1.00 53.95    -0.572 OA
HETATM   55  O6S SGN C   2       4.150   9.160  50.022  1.00 54.13    -0.572 OA
ENDBRANCH  51  52
ENDBRANCH  50  51
ENDBRANCH  27  50
ENDBRANCH  21  22
ENDBRANCH  11  21
BRANCH  13  56
HETATM   56  C6  IDS C   3      10.361  11.588  48.997  1.00 33.29     0.206 C 
HETATM   57  O6A IDS C   3      11.346  12.280  49.362  1.00 34.35    -0.646 OA
HETATM   58  O6B IDS C   3       9.957  10.640  49.723  1.00 34.80    -0.646 OA
ENDBRANCH  13  56
ENDBRANCH   7   8
ENDBRANCH   1   7
BRANCH   2  59
HETATM   59  N2  SGN C   4      12.783   7.894  46.598  1.00 24.47    -0.289 N 
ATOM     60  H2  SGN C   4      11.949   7.894  47.185  1.00  0.00     0.175 HD
BRANCH  59  61
HETATM   61  S1  SGN C   4      13.607   6.554  46.324  1.00 23.01     0.205 S 
HETATM   62  O1S SGN C   4      14.343   6.216  47.529  1.00 23.82    -0.578 OA
HETATM   63  O2S SGN C   4      12.651   5.501  45.997  1.00 21.15    -0.578 OA
HETATM   64  O3S SGN C   4      14.486   6.866  45.199  1.00 24.34    -0.578 OA
ENDBRANCH  59  61
ENDBRANCH   2  59
BRANCH   3  65
HETATM   65  O3  SGN C   4      15.375   8.928  47.123  1.00 24.01    -0.391 OA
ATOM     66  H3  SGN C   4      15.130   8.257  47.750  1.00  0.00     0.210 HD
ENDBRANCH   3  65
BRANCH   5  67
HETATM   67  C6  SGN C   4      13.911  13.227  45.205  1.00 29.42     0.227 C 
BRANCH  67  68
HETATM   68  O6  SGN C   4      12.758  13.906  44.759  1.00 33.38    -0.254 OA
BRANCH  68  69
HETATM   69  S2  SGN C   4      12.680  14.312  43.245  1.00 42.75     0.251 S 
HETATM   70  O4S SGN C   4      13.792  13.668  42.558  1.00 44.95    -0.572 OA
HETATM   71  O5S SGN C   4      11.379  13.855  42.778  1.00 42.87    -0.572 OA
HETATM   72  O6S SGN C   4      12.765  15.766  43.186  1.00 40.27    -0.572 OA
ENDBRANCH  68  69
ENDBRANCH  67  68
ENDBRANCH   5  67
BRANCH   4  73
HETATM   73  O4  SGN C   4      15.498  11.792  47.287  1.00 25.89    -0.348 OA
BRANCH  73  74
HETATM   74  C1  BDP C   5      16.891  11.979  46.957  1.00 28.36     0.292 C 
HETATM   75  C2  BDP C   5      17.756  11.246  47.937  1.00 31.13     0.204 C 
HETATM   76  C3  BDP C   5      19.196  11.515  47.677  1.00 33.85     0.183 C 
HETATM   77  C4  BDP C   5      19.553  11.270  46.249  1.00 31.81     0.195 C 
HETATM   78  C5  BDP C   5      18.519  11.898  45.340  1.00 27.14     0.257 C 
HETATM   79  O5  BDP C   5      17.221  11.521  45.691  1.00 24.75    -0.340 OA
BRANCH  75  80
HETATM   80  O2  BDP C   5      17.468  11.638  49.236  1.00 34.37    -0.388 OA
ATOM     81  H2  BDP C   5      16.824  11.060  49.628  1.00  0.00     0.210 HD
ENDBRANCH  75  80
BRANCH  76  82
HETATM   82  O3  BDP C   5      19.935  10.685  48.499  1.00 34.34    -0.390 OA
ATOM     83  H3  BDP C   5      20.772  10.529  48.076  1.00  0.00     0.210 HD
ENDBRANCH  76  82
BRANCH  77  84
HETATM   84  O4  BDP C   5      20.784  11.861  45.966  1.00 33.34    -0.348 OA
BRANCH  84  85
HETATM   85  C1  NGY C   6      21.765  11.714  47.018  1.00 35.33     0.286 C 
HETATM   86  C2  NGY C   6      22.732  12.847  46.926  1.00 39.33     0.170 C 
HETATM   87  C3  NGY C   6      23.503  12.707  45.660  1.00 39.13     0.177 C 
HETATM   88  C4  NGY C   6      24.216  11.401  45.684  1.00 37.06     0.180 C 
HETATM   89  C5  NGY C   6      23.184  10.328  45.809  1.00 32.98     0.181 C 
HETATM   90  O5  NGY C   6      22.469  10.526  46.972  1.00 32.46    -0.349 OA
BRANCH  86  91
HETATM   91  N2  NGY C   6      22.014  14.085  46.898  1.00 39.90    -0.349 N 
HETATM   92  C7  NGY C   6      21.990  14.933  48.047  1.00 44.73     0.214 C 
HETATM   93  O7  NGY C   6      22.583  14.606  49.066  1.00 46.19    -0.274 OA
HETATM   94  C8  NGY C   6      21.233  16.218  47.991  1.00 43.79     0.117 C 
ATOM     95  H2  NGY C   6      21.516  14.363  46.052  1.00  0.00     0.163 HD
ENDBRANCH  86  91
BRANCH  87  96
HETATM   96  O3  NGY C   6      24.404  13.742  45.532  1.00 44.02    -0.391 OA
ATOM     97  H3  NGY C   6      25.138  13.616  46.121  1.00  0.00     0.210 HD
ENDBRANCH  87  96
BRANCH  88  98
HETATM   98  O4  NGY C   6      24.921  11.243  44.513  1.00 37.39    -0.390 OA
ATOM     99  H4  NGY C   6      24.319  11.244  43.779  1.00  0.00     0.210 HD
ENDBRANCH  88  98
BRANCH  89 100
HETATM  100  C6  NGY C   6      23.805   8.966  45.793  1.00 31.91     0.227 C 
BRANCH 100 101
HETATM  101  O6  NGY C   6      24.802   8.843  46.742  1.00 36.15    -0.254 OA
BRANCH 101 102
HETATM  102  S   NGY C   6      26.091   8.210  46.382  1.00 34.85     0.251 S 
HETATM  103  O7A NGY C   6      25.868   7.045  45.565  1.00 33.41    -0.572 OA
HETATM  104  O8  NGY C   6      26.714   7.840  47.652  1.00 30.21    -0.572 OA
HETATM  105  O9  NGY C   6      26.897   9.162  45.656  1.00 38.01    -0.572 OA
ENDBRANCH 101 102
ENDBRANCH 100 101
ENDBRANCH  89 100
ENDBRANCH  84  85
ENDBRANCH  77  84
BRANCH  78 106
HETATM  106  C6  BDP C   5      18.762  11.605  43.890  1.00 29.31     0.206 C 
HETATM  107  O6A BDP C   5      18.241  10.590  43.364  1.00 32.10    -0.646 OA
HETATM  108  O6B BDP C   5      19.498  12.357  43.200  1.00 26.46    -0.646 OA
ENDBRANCH  78 106
ENDBRANCH  73  74
ENDBRANCH   4  73
TORSDOF 38
ENDMDL
MODEL 3
REMARK VINA RESULT:      -8.4      3.715      6.123
REMARK WARNING: 32 MAX_TORS EXCEEDED!!!
REMARK  38 active torsions:
REMARK  status: ('A' for Active; 'I' for Inactive)
REMARK    1  A    between atoms: C2_2  and  O2_3 
REMARK    2  A    between atoms: C3_5  and  O3_6 
REMARK    3  A    between atoms: C4_8  and  O4_9 
REMARK    4  A    between atoms: O4_9  and  C1_15 
REMARK    5  A    between atoms: C5_10  and  C6_12 
REMARK    6  A    between atoms: S1_17  and  N2_19 
REMARK    7  A    between atoms: C2_18  and  N2_19 
REMARK    8  A    between atoms: S2_22  and  O6_34 
REMARK    9  A    between atoms: C3_23  and  O3_24 
REMARK   10  A    between atoms: C4_27  and  O4_28 
REMARK   11  A    between atoms: O4_28  and  C1_36 
REMARK   12  A    between atoms: C5_30  and  C6_33 
REMARK   13  A    between atoms: C6_33  and  O6_34 
REMARK   14  A    between atoms: C2_38  and  O2_39 
REMARK   15  A    between atoms: O2_39  and  S_52 
REMARK   16  A    between atoms: C3_41  and  O3_42 
REMARK   17  A    between atoms: C4_45  and  O4_46 
REMARK   18  A    between atoms: O4_46  and  C1_53 
REMARK   19  A    between atoms: C5_47  and  C6_49 
REMARK   20  A    between atoms: S1_55  and  N2_57 
REMARK   21  A    between atoms: C2_56  and  N2_57 
REMARK   22  A    between atoms: S2_60  and  O6_72 
REMARK   23  A    between atoms: C3_61  and  O3_62 
REMARK   24  A    between atoms: C4_65  and  O4_66 
REMARK   25  A    between atoms: O4_66  and  C1_74 
REMARK   26  A    between atoms: C5_68  and  C6_71 
REMARK   27  A    between atoms: C6_71  and  O6_72 
REMARK   28  A    between atoms: C2_75  and  O2_76 
REMARK   29  A    between atoms: C3_78  and  O3_79 
REMARK   30  A    between atoms: C4_81  and  O4_82 
REMARK   31  A    between atoms: O4_82  and  C1_88 
REMARK   32  A    between atoms: C5_83  and  C6_85 
REMARK   33  A    between atoms: C2_89  and  N2_90 
REMARK       I    between atoms: N2_90  and  C7_102 
REMARK   34  A    between atoms: C3_92  and  O3_93 
REMARK   35  A    between atoms: C4_95  and  O4_96 
REMARK   36  A    between atoms: C5_98  and  C6_100 
REMARK   37  A    between atoms: C6_100  and  O6_101 
REMARK   38  A    between atoms: O6_101  and  S_108 
ROOT
HETATM    1  C1  SGN C   4      10.318  11.402  45.348  1.00 25.95     0.287 C 
HETATM    2  C2  SGN C   4      11.112  10.215  44.794  1.00 24.33     0.182 C 
HETATM    3  C3  SGN C   4      12.403   9.986  45.573  1.00 24.72     0.178 C 
HETATM    4  C4  SGN C   4      13.221  11.267  45.632  1.00 24.11     0.186 C 
HETATM    5  C5  SGN C   4      12.310  12.394  46.119  1.00 25.01     0.181 C 
HETATM    6  O5  SGN C   4      11.163  12.535  45.302  1.00 24.61    -0.349 OA
ENDROOT
BRANCH   1   7
HETATM    7  O4  IDS C   3       9.805  11.139  46.679  1.00 24.52    -0.348 OA
BRANCH   7   8
HETATM    8  C4  IDS C   3       9.022  12.201  47.139  1.00 32.57     0.195 C 
HETATM    9  C3  IDS C   3       7.691  12.274  46.443  1.00 36.22     0.185 C 
HETATM   10  C2  IDS C   3       6.577  11.491  47.103  1.00 37.49     0.231 C 
HETATM   11  C1  IDS C   3       6.650  11.539  48.598  1.00 32.35     0.294 C 
HETATM   12  O5  IDS C   3       7.918  11.189  48.999  1.00 29.95    -0.340 OA
HETATM   13  C5  IDS C   3       8.833  12.148  48.631  1.00 31.73     0.257 C 
BRANCH   9  14
HETATM   14  O3  IDS C   3       7.297  13.597  46.397  1.00 35.64    -0.390 OA
ATOM     15  H3  IDS C   3       6.762  13.709  45.620  1.00  0.00     0.210 HD
ENDBRANCH   9  14
BRANCH  10  16
HETATM   16  O2  IDS C   3       6.568  10.179  46.662  1.00 41.30    -0.244 OA
BRANCH  16  17
HETATM   17  S   IDS C   3       5.308   9.417  46.736  1.00 46.67     0.252 S 
HETATM   18  O1S IDS C   3       5.242   8.691  47.979  1.00 45.84    -0.572 OA
HETATM   19  O2S IDS C   3       4.225  10.405  46.643  1.00 43.53    -0.572 OA
HETATM   20  O3S IDS C   3       5.210   8.483  45.640  1.00 50.85    -0.572 OA
ENDBRANCH  16  17
ENDBRANCH  10  16
BRANCH  11  21
HETATM   21  O4  SGN C   2       6.185  12.826  49.074  1.00 35.63    -0.348 OA
BRANCH  21  22
HETATM   22  C4  SGN C   2       6.042  12.887  50.488  1.00 34.14     0.186 C 
HETATM   23  C3  SGN C   2       6.519  14.264  50.936  1.00 36.01     0.178 C 
HETATM   24  C2  SGN C   2       6.153  14.600  52.384  1.00 38.29     0.182 C 
HETATM   25  C1  SGN C   2       4.694  14.259  52.689  1.00 40.25     0.287 C 
HETATM   26  O5  SGN C   2       4.435  12.921  52.312  1.00 40.44    -0.349 OA
HETATM   27  C5  SGN C   2       4.586  12.701  50.913  1.00 39.12     0.181 C 
BRANCH  23  28
HETATM   28  O3  SGN C   2       7.913  14.363  50.773  1.00 37.94    -0.391 OA
ATOM     29  H3  SGN C   2       8.133  15.235  50.465  1.00  0.00     0.210 HD
ENDBRANCH  23  28
BRANCH  24  30
HETATM   30  N2  SGN C   2       6.395  16.019  52.565  1.00 38.07    -0.289 N 
ATOM     31  H2  SGN C   2       5.891  16.685  51.979  1.00  0.00     0.175 HD
BRANCH  30  32
HETATM   32  S1  SGN C   2       7.427  16.575  53.653  1.00 51.36     0.205 S 
HETATM   33  O1S SGN C   2       6.869  17.807  54.201  1.00 53.59    -0.578 OA
HETATM   34  O2S SGN C   2       7.545  15.554  54.690  1.00 50.52    -0.578 OA
HETATM   35  O3S SGN C   2       8.675  16.802  52.933  1.00 54.39    -0.578 OA
ENDBRANCH  30  32
ENDBRANCH  24  30
BRANCH  25  36
HETATM   36  O4  BDP C   1       3.840  15.212  52.015  1.00 42.04    -0.348 OA
BRANCH  36  37
HETATM   37  C4  BDP C   1       2.756  15.598  52.789  1.00 48.48     0.195 C 
HETATM   38  C3  BDP C   1       3.041  16.929  53.400  1.00 51.01     0.181 C 
HETATM   39  C2  BDP C   1       1.814  17.559  53.962  1.00 53.01     0.173 C 
HETATM   40  C1  BDP C   1       0.692  17.534  52.982  1.00 54.14     0.203 C 
HETATM   41  O5  BDP C   1       0.474  16.228  52.598  1.00 54.15    -0.370 OA
HETATM   42  C5  BDP C   1       1.541  15.676  51.901  1.00 51.87     0.253 C 
BRANCH  38  43
HETATM   43  O3  BDP C   1       3.950  16.779  54.429  1.00 52.92    -0.390 OA
ATOM     44  H3  BDP C   1       4.667  17.383  54.276  1.00  0.00     0.210 HD
ENDBRANCH  38  43
BRANCH  39  45
HETATM   45  O2  BDP C   1       2.084  18.875  54.281  1.00 53.19    -0.391 OA
ATOM     46  H2  BDP C   1       2.032  18.971  55.225  1.00  0.00     0.210 HD
ENDBRANCH  39  45
BRANCH  42  47
HETATM   47  C6  BDP C   1       1.132  14.334  51.373  1.00 51.57     0.205 C 
HETATM   48  O6A BDP C   1       0.874  13.398  52.174  1.00 52.65    -0.646 OA
HETATM   49  O6B BDP C   1       1.054  14.141  50.130  1.00 51.09    -0.646 OA
ENDBRANCH  42  47
ENDBRANCH  36  37
ENDBRANCH  25  36
BRANCH  27  50
HETATM   50  C6  SGN C   2       4.046  11.321  50.548  1.00 42.92     0.227 C 
BRANCH  50  51
HETATM   51  O6  SGN C   2       3.720  10.600  51.716  1.00 46.75    -0.254 OA
BRANCH  51  52
HETATM   52  S2  SGN C   2       3.070   9.181  51.607  1.00 56.56     0.251 S 
HETATM   53  O4S SGN C   2       2.656   8.795  52.955  1.00 58.52    -0.572 OA
HETATM   54  O5S SGN C   2       1.935   9.269  50.697  1.00 53.95    -0.572 OA
HETATM   55  O6S SGN C   2       4.086   8.285  51.071  1.00 54.13    -0.572 OA
ENDBRANCH  51  52
ENDBRANCH  50  51
ENDBRANCH  27  50
ENDBRANCH  21  22
ENDBRANCH  11  21
BRANCH  13  56
HETATM   56  C6  IDS C   3      10.136  11.822  49.290  1.00 33.29     0.206 C 
HETATM   57  O6A IDS C   3      11.060  12.675  49.328  1.00 34.35    -0.646 OA
HETATM   58  O6B IDS C   3      10.312  10.684  49.801  1.00 34.80    -0.646 OA
ENDBRANCH  13  56
ENDBRANCH   7   8
ENDBRANCH   1   7
BRANCH   2  59
HETATM   59  N2  SGN C   4      10.319   8.998  44.794  1.00 24.47    -0.289 N 
ATOM     60  H2  SGN C   4      10.236   8.418  45.629  1.00  0.00     0.175 HD
BRANCH  59  61
HETATM   61  S1  SGN C   4       9.582   8.606  43.432  1.00 23.01     0.205 S 
HETATM   62  O1S SGN C   4      10.553   8.666  42.355  1.00 23.82    -0.578 OA
HETATM   63  O2S SGN C   4       9.065   7.250  43.579  1.00 21.15    -0.578 OA
HETATM   64  O3S SGN C   4       8.511   9.589  43.279  1.00 24.34    -0.578 OA
ENDBRANCH  59  61
ENDBRANCH   2  59
BRANCH   3  65
HETATM   65  O3  SGN C   4      13.153   8.958  44.955  1.00 24.01    -0.391 OA
ATOM     66  H3  SGN C   4      12.571   8.392  44.462  1.00  0.00     0.210 HD
ENDBRANCH   3  65
BRANCH   5  67
HETATM   67  C6  SGN C   4      13.027  13.738  46.152  1.00 29.42     0.227 C 
BRANCH  67  68
HETATM   68  O6  SGN C   4      13.173  14.188  47.481  1.00 33.38    -0.254 OA
BRANCH  68  69
HETATM   69  S2  SGN C   4      14.617  14.535  47.988  1.00 42.75     0.251 S 
HETATM   70  O4S SGN C   4      14.535  15.786  48.731  1.00 44.95    -0.572 OA
HETATM   71  O5S SGN C   4      15.029  13.408  48.813  1.00 42.87    -0.572 OA
HETATM   72  O6S SGN C   4      15.470  14.648  46.811  1.00 40.27    -0.572 OA
ENDBRANCH  68  69
ENDBRANCH  67  68
ENDBRANCH   5  67
BRANCH   4  73
HETATM   73  O4  SGN C   4      14.279  11.058  46.555  1.00 25.89    -0.348 OA
BRANCH  73  74
HETATM   74  C1  BDP C   5      15.594  11.258  45.996  1.00 28.36     0.292 C 
HETATM   75  C2  BDP C   5      16.328   9.954  45.923  1.00 31.13     0.204 C 
HETATM   76  C3  BDP C   5      17.724  10.157  45.449  1.00 33.85     0.183 C 
HETATM   77  C4  BDP C   5      17.766  10.950  44.185  1.00 31.81     0.195 C 
HETATM   78  C5  BDP C   5      16.853  12.150  44.294  1.00 27.14     0.257 C 
HETATM   79  O5  BDP C   5      15.571  11.792  44.717  1.00 24.75    -0.340 OA
BRANCH  75  80
HETATM   80  O2  BDP C   5      16.376   9.346  47.169  1.00 34.37    -0.388 OA
ATOM     81  H2  BDP C   5      16.320   9.994  47.862  1.00  0.00     0.210 HD
ENDBRANCH  75  80
BRANCH  76  82
HETATM   82  O3  BDP C   5      18.285   8.910  45.244  1.00 34.34    -0.390 OA
ATOM     83  H3  BDP C   5      18.187   8.695  44.324  1.00  0.00     0.210 HD
ENDBRANCH  76  82
BRANCH  77  84
HETATM   84  O4  BDP C   5      19.062  11.418  43.970  1.00 33.34    -0.348 OA
BRANCH  84  85
HETATM   85  C1  NGY C   6      19.621  12.144  45.090  1.00 35.33     0.286 C 
HETATM   86  C2  NGY C   6      20.531  13.203  44.561  1.00 39.33     0.170 C 
HETATM   87  C3  NGY C   6      21.696  12.541  43.912  1.00 39.13     0.177 C 
HETATM   88  C4  NGY C   6      22.389  11.703  44.929  1.00 37.06     0.180 C 
HETATM   89  C5  NGY C   6      21.405  10.696  45.427  1.00 32.98     0.181 C 
HETATM   90  O5  NGY C   6      20.327  11.356  45.978  1.00 32.46    -0.349 OA
BRANCH  86  91
HETATM   91  N2  NGY C   6      19.836  13.983  43.583  1.00 39.90    -0.349 N 
HETATM   92  C7  NGY C   6      19.447  15.327  43.874  1.00 44.73     0.214 C 
HETATM   93  O7  NGY C   6      19.704  15.819  44.964  1.00 46.19    -0.274 OA
HETATM   94  C8  NGY C   6      18.724  16.119  42.837  1.00 43.79     0.117 C 
ATOM     95  H2  NGY C   6      19.619  13.578  42.673  1.00  0.00     0.163 HD
ENDBRANCH  86  91
BRANCH  87  96
HETATM   96  O3  NGY C   6      22.560  13.486  43.402  1.00 44.02    -0.391 OA
ATOM     97  H3  NGY C   6      22.436  13.575  42.465  1.00  0.00     0.210 HD
ENDBRANCH  87  96
BRANCH  88  98
HETATM   98  O4  NGY C   6      23.461  11.067  44.344  1.00 37.39    -0.390 OA
ATOM     99  H4  NGY C   6      23.709  11.529  43.552  1.00  0.00     0.210 HD
ENDBRANCH  88  98
BRANCH  89 100
HETATM  100  C6  NGY C   6      22.027   9.769  46.425  1.00 31.91     0.227 C 
BRANCH 100 101
HETATM  101  O6  NGY C   6      22.646   8.694  45.815  1.00 36.15    -0.254 OA
BRANCH 101 102
HETATM  102  S   NGY C   6      24.078   8.424  46.071  1.00 34.85     0.251 S 
HETATM  103  O7A NGY C   6      24.228   7.269  46.917  1.00 33.41    -0.572 OA
HETATM  104  O8  NGY C   6      24.590   9.622  46.736  1.00 30.21    -0.572 OA
HETATM  105  O9  NGY C   6      24.747   8.192  44.813  1.00 38.01    -0.572 OA
ENDBRANCH 101 102
ENDBRANCH 100 101
ENDBRANCH  89 100
ENDBRANCH  84  85
ENDBRANCH  77  84
BRANCH  78 106
HETATM  106  C6  BDP C   5      16.771  12.939  43.022  1.00 29.31     0.206 C 
HETATM  107  O6A BDP C   5      17.566  12.689  42.082  1.00 32.10    -0.646 OA
HETATM  108  O6B BDP C   5      15.925  13.862  42.895  1.00 26.46    -0.646 OA
ENDBRANCH  78 106
ENDBRANCH  73  74
ENDBRANCH   4  73
TORSDOF 38
ENDMDL
MODEL 4
REMARK VINA RESULT:      -8.4      2.266      4.490
REMARK WARNING: 32 MAX_TORS EXCEEDED!!!
REMARK  38 active torsions:
REMARK  status: ('A' for Active; 'I' for Inactive)
REMARK    1  A    between atoms: C2_2  and  O2_3 
REMARK    2  A    between atoms: C3_5  and  O3_6 
REMARK    3  A    between atoms: C4_8  and  O4_9 
REMARK    4  A    between atoms: O4_9  and  C1_15 
REMARK    5  A    between atoms: C5_10  and  C6_12 
REMARK    6  A    between atoms: S1_17  and  N2_19 
REMARK    7  A    between atoms: C2_18  and  N2_19 
REMARK    8  A    between atoms: S2_22  and  O6_34 
REMARK    9  A    between atoms: C3_23  and  O3_24 
REMARK   10  A    between atoms: C4_27  and  O4_28 
REMARK   11  A    between atoms: O4_28  and  C1_36 
REMARK   12  A    between atoms: C5_30  and  C6_33 
REMARK   13  A    between atoms: C6_33  and  O6_34 
REMARK   14  A    between atoms: C2_38  and  O2_39 
REMARK   15  A    between atoms: O2_39  and  S_52 
REMARK   16  A    between atoms: C3_41  and  O3_42 
REMARK   17  A    between atoms: C4_45  and  O4_46 
REMARK   18  A    between atoms: O4_46  and  C1_53 
REMARK   19  A    between atoms: C5_47  and  C6_49 
REMARK   20  A    between atoms: S1_55  and  N2_57 
REMARK   21  A    between atoms: C2_56  and  N2_57 
REMARK   22  A    between atoms: S2_60  and  O6_72 
REMARK   23  A    between atoms: C3_61  and  O3_62 
REMARK   24  A    between atoms: C4_65  and  O4_66 
REMARK   25  A    between atoms: O4_66  and  C1_74 
REMARK   26  A    between atoms: C5_68  and  C6_71 
REMARK   27  A    between atoms: C6_71  and  O6_72 
REMARK   28  A    between atoms: C2_75  and  O2_76 
REMARK   29  A    between atoms: C3_78  and  O3_79 
REMARK   30  A    between atoms: C4_81  and  O4_82 
REMARK   31  A    between atoms: O4_82  and  C1_88 
REMARK   32  A    between atoms: C5_83  and  C6_85 
REMARK   33  A    between atoms: C2_89  and  N2_90 
REMARK       I    between atoms: N2_90  and  C7_102 
REMARK   34  A    between atoms: C3_92  and  O3_93 
REMARK   35  A    between atoms: C4_95  and  O4_96 
REMARK   36  A    between atoms: C5_98  and  C6_100 
REMARK   37  A    between atoms: C6_100  and  O6_101 
REMARK   38  A    between atoms: O6_101  and  S_108 
ROOT
HETATM    1  C1  SGN C   4      11.091  11.300  46.450  1.00 25.95     0.287 C 
HETATM    2  C2  SGN C   4      11.912  12.584  46.296  1.00 24.33     0.182 C 
HETATM    3  C3  SGN C   4      13.126  12.374  45.396  1.00 24.72     0.178 C 
HETATM    4  C4  SGN C   4      13.955  11.199  45.892  1.00 24.11     0.186 C 
HETATM    5  C5  SGN C   4      13.023  10.002  46.085  1.00 25.01     0.181 C 
HETATM    6  O5  SGN C   4      11.954  10.304  46.963  1.00 24.61    -0.349 OA
ENDROOT
BRANCH   1   7
HETATM    7  O4  IDS C   3      10.460  10.906  45.204  1.00 24.52    -0.348 OA
BRANCH   7   8
HETATM    8  C4  IDS C   3       9.204  10.336  45.431  1.00 32.57     0.195 C 
HETATM    9  C3  IDS C   3       8.153  11.367  45.735  1.00 36.22     0.185 C 
HETATM   10  C2  IDS C   3       7.416  11.907  44.529  1.00 37.49     0.231 C 
HETATM   11  C1  IDS C   3       7.163  10.855  43.493  1.00 32.35     0.294 C 
HETATM   12  O5  IDS C   3       8.344  10.212  43.207  1.00 29.95    -0.340 OA
HETATM   13  C5  IDS C   3       8.772   9.466  44.281  1.00 31.73     0.257 C 
BRANCH   9  14
HETATM   14  O3  IDS C   3       7.215  10.797  46.575  1.00 35.64    -0.390 OA
ATOM     15  H3  IDS C   3       6.779  11.504  47.036  1.00  0.00     0.210 HD
ENDBRANCH   9  14
BRANCH  10  16
HETATM   16  O2  IDS C   3       8.094  12.978  43.974  1.00 41.30    -0.244 OA
BRANCH  16  17
HETATM   17  S   IDS C   3       7.362  14.237  43.745  1.00 46.67     0.252 S 
HETATM   18  O1S IDS C   3       6.330  14.394  44.738  1.00 45.84    -0.572 OA
HETATM   19  O2S IDS C   3       8.356  15.314  43.840  1.00 43.53    -0.572 OA
HETATM   20  O3S IDS C   3       6.759  14.246  42.434  1.00 50.85    -0.572 OA
ENDBRANCH  16  17
ENDBRANCH  10  16
BRANCH  11  21
HETATM   21  O4  SGN C   2       6.077   9.994  43.917  1.00 35.63    -0.348 OA
BRANCH  21  22
HETATM   22  C4  SGN C   2       4.791  10.517  43.613  1.00 34.14     0.186 C 
HETATM   23  C3  SGN C   2       4.370   9.940  42.265  1.00 36.01     0.178 C 
HETATM   24  C2  SGN C   2       2.893  10.164  41.934  1.00 38.29     0.182 C 
HETATM   25  C1  SGN C   2       1.993   9.825  43.123  1.00 40.25     0.287 C 
HETATM   26  O5  SGN C   2       2.450  10.514  44.270  1.00 40.44    -0.349 OA
HETATM   27  C5  SGN C   2       3.760  10.119  44.668  1.00 39.12     0.181 C 
BRANCH  23  28
HETATM   28  O3  SGN C   2       5.165  10.489  41.242  1.00 37.94    -0.391 OA
ATOM     29  H3  SGN C   2       4.685  11.187  40.811  1.00  0.00     0.210 HD
ENDBRANCH  23  28
BRANCH  24  30
HETATM   30  N2  SGN C   2       2.579   9.318  40.798  1.00 38.07    -0.289 N 
ATOM     31  H2  SGN C   2       2.577   8.305  40.922  1.00  0.00     0.175 HD
BRANCH  30  32
HETATM   32  S1  SGN C   2       2.236   9.920  39.357  1.00 51.36     0.205 S 
HETATM   33  O1S SGN C   2       1.640  11.236  39.558  1.00 53.59    -0.578 OA
HETATM   34  O2S SGN C   2       3.497  10.027  38.628  1.00 50.52    -0.578 OA
HETATM   35  O3S SGN C   2       1.306   8.976  38.746  1.00 54.39    -0.578 OA
ENDBRANCH  30  32
ENDBRANCH  24  30
BRANCH  25  36
HETATM   36  O4  BDP C   1       1.969   8.390  43.298  1.00 42.04    -0.348 OA
BRANCH  36  37
HETATM   37  C4  BDP C   1       0.686   7.867  43.244  1.00 48.48     0.195 C 
HETATM   38  C3  BDP C   1       0.687   6.655  42.373  1.00 51.01     0.181 C 
HETATM   39  C2  BDP C   1      -0.557   5.853  42.533  1.00 53.01     0.173 C 
HETATM   40  C1  BDP C   1      -0.866   5.606  43.969  1.00 54.14     0.203 C 
HETATM   41  O5  BDP C   1      -0.948   6.821  44.615  1.00 54.15    -0.370 OA
HETATM   42  C5  BDP C   1       0.258   7.509  44.644  1.00 51.87     0.253 C 
BRANCH  38  43
HETATM   43  O3  BDP C   1       0.779   7.038  41.049  1.00 52.92    -0.390 OA
ATOM     44  H3  BDP C   1      -0.054   6.851  40.633  1.00  0.00     0.210 HD
ENDBRANCH  38  43
BRANCH  39  45
HETATM   45  O2  BDP C   1      -0.395   4.632  41.906  1.00 53.19    -0.391 OA
ATOM     46  H2  BDP C   1      -0.813   4.675  41.055  1.00  0.00     0.210 HD
ENDBRANCH  39  45
BRANCH  42  47
HETATM   47  C6  BDP C   1       0.107   8.714  45.522  1.00 51.57     0.205 C 
HETATM   48  O6A BDP C   1      -0.823   9.534  45.305  1.00 52.65    -0.646 OA
HETATM   49  O6B BDP C   1       0.915   8.911  46.469  1.00 51.09    -0.646 OA
ENDBRANCH  42  47
ENDBRANCH  36  37
ENDBRANCH  25  36
BRANCH  27  50
HETATM   50  C6  SGN C   2       4.078  10.705  46.040  1.00 42.92     0.227 C 
BRANCH  50  51
HETATM   51  O6  SGN C   2       4.508   9.688  46.919  1.00 46.75    -0.254 OA
BRANCH  51  52
HETATM   52  S2  SGN C   2       4.341   9.862  48.465  1.00 56.56     0.251 S 
HETATM   53  O4S SGN C   2       3.013   9.359  48.812  1.00 58.52    -0.572 OA
HETATM   54  O5S SGN C   2       5.397   9.103  49.124  1.00 53.95    -0.572 OA
HETATM   55  O6S SGN C   2       4.479  11.283  48.752  1.00 54.13    -0.572 OA
ENDBRANCH  51  52
ENDBRANCH  50  51
ENDBRANCH  27  50
ENDBRANCH  21  22
ENDBRANCH  11  21
BRANCH  13  56
HETATM   56  C6  IDS C   3       9.922   8.621  43.831  1.00 33.29     0.206 C 
HETATM   57  O6A IDS C   3      10.319   8.671  42.639  1.00 34.35    -0.646 OA
HETATM   58  O6B IDS C   3      10.487   7.847  44.649  1.00 34.80    -0.646 OA
ENDBRANCH  13  56
ENDBRANCH   7   8
ENDBRANCH   1   7
BRANCH   2  59
HETATM   59  N2  SGN C   4      11.103  13.673  45.778  1.00 24.47    -0.289 N 
ATOM     60  H2  SGN C   4      10.899  13.757  44.782  1.00  0.00     0.175 HD
BRANCH  59  61
HETATM   61  S1  SGN C   4      10.546  14.735  46.833  1.00 23.01     0.205 S 
HETATM   62  O1S SGN C   4      10.660  16.059  46.249  1.00 23.82    -0.578 OA
HETATM   63  O2S SGN C   4       9.147  14.412  47.096  1.00 21.15    -0.578 OA
HETATM   64  O3S SGN C   4      11.381  14.571  48.020  1.00 24.34    -0.578 OA
ENDBRANCH  59  61
ENDBRANCH   2  59
BRANCH   3  65
HETATM   65  O3  SGN C   4      13.912  13.550  45.379  1.00 24.01    -0.391 OA
ATOM     66  H3  SGN C   4      13.611  14.143  46.057  1.00  0.00     0.210 HD
ENDBRANCH   3  65
BRANCH   5  67
HETATM   67  C6  SGN C   4      13.755   8.787  46.642  1.00 29.42     0.227 C 
BRANCH  67  68
HETATM   68  O6  SGN C   4      13.504   7.651  45.845  1.00 33.38    -0.254 OA
BRANCH  68  69
HETATM   69  S2  SGN C   4      14.181   6.296  46.258  1.00 42.75     0.251 S 
HETATM   70  O4S SGN C   4      14.549   6.397  47.664  1.00 44.95    -0.572 OA
HETATM   71  O5S SGN C   4      13.189   5.263  46.000  1.00 42.87    -0.572 OA
HETATM   72  O6S SGN C   4      15.344   6.118  45.396  1.00 40.27    -0.572 OA
ENDBRANCH  68  69
ENDBRANCH  67  68
ENDBRANCH   5  67
BRANCH   4  73
HETATM   73  O4  SGN C   4      14.925  10.908  44.897  1.00 25.89    -0.348 OA
BRANCH  73  74
HETATM   74  C1  BDP C   5      16.264  11.321  45.243  1.00 28.36     0.292 C 
HETATM   75  C2  BDP C   5      17.250  10.265  44.845  1.00 31.13     0.204 C 
HETATM   76  C3  BDP C   5      18.623  10.627  45.291  1.00 33.85     0.183 C 
HETATM   77  C4  BDP C   5      18.998  12.004  44.856  1.00 31.81     0.195 C 
HETATM   78  C5  BDP C   5      17.865  12.965  45.139  1.00 27.14     0.257 C 
HETATM   79  O5  BDP C   5      16.650  12.501  44.628  1.00 24.75    -0.340 OA
BRANCH  75  80
HETATM   80  O2  BDP C   5      16.917   9.043  45.410  1.00 34.37    -0.388 OA
ATOM     81  H2  BDP C   5      16.996   9.076  46.356  1.00  0.00     0.210 HD
ENDBRANCH  75  80
BRANCH  76  82
HETATM   82  O3  BDP C   5      19.498   9.704  44.749  1.00 34.34    -0.390 OA
ATOM     83  H3  BDP C   5      20.363  10.098  44.737  1.00  0.00     0.210 HD
ENDBRANCH  76  82
BRANCH  77  84
HETATM   84  O4  BDP C   5      20.112  12.435  45.577  1.00 33.34    -0.348 OA
BRANCH  84  85
HETATM   85  C1  NGY C   6      20.504  11.543  46.646  1.00 35.33     0.286 C 
HETATM   86  C2  NGY C   6      20.946  12.366  47.811  1.00 39.33     0.170 C 
HETATM   87  C3  NGY C   6      22.193  13.086  47.434  1.00 39.13     0.177 C 
HETATM   88  C4  NGY C   6      23.227  12.079  47.071  1.00 37.06     0.180 C 
HETATM   89  C5  NGY C   6      22.697  11.282  45.925  1.00 32.98     0.181 C 
HETATM   90  O5  NGY C   6      21.521  10.670  46.309  1.00 32.46    -0.349 OA
BRANCH  86  91
HETATM   91  N2  NGY C   6      19.933  13.326  48.127  1.00 39.90    -0.349 N 
HETATM   92  C7  NGY C   6      18.918  13.018  49.084  1.00 44.73     0.214 C 
HETATM   93  O7  NGY C   6      18.908  11.929  49.641  1.00 46.19    -0.274 OA
HETATM   94  C8  NGY C   6      17.873  14.037  49.395  1.00 43.79     0.117 C 
ATOM     95  H2  NGY C   6      19.935  14.236  47.666  1.00  0.00     0.163 HD
ENDBRANCH  86  91
BRANCH  87  96
HETATM   96  O3  NGY C   6      22.631  13.866  48.482  1.00 44.02    -0.391 OA
ATOM     97  H3  NGY C   6      22.214  13.595  49.292  1.00  0.00     0.210 HD
ENDBRANCH  87  96
BRANCH  88  98
HETATM   98  O4  NGY C   6      24.385  12.725  46.701  1.00 37.39    -0.390 OA
ATOM     99  H4  NGY C   6      24.635  13.339  47.381  1.00  0.00     0.210 HD
ENDBRANCH  88  98
BRANCH  89 100
HETATM  100  C6  NGY C   6      23.693  10.268  45.454  1.00 31.91     0.227 C 
BRANCH 100 101
HETATM  101  O6  NGY C   6      23.412   9.005  45.942  1.00 36.15    -0.254 OA
BRANCH 101 102
HETATM  102  S   NGY C   6      24.517   8.115  46.364  1.00 34.85     0.251 S 
HETATM  103  O7A NGY C   6      25.398   8.803  47.271  1.00 33.41    -0.572 OA
HETATM  104  O8  NGY C   6      25.220   7.752  45.135  1.00 30.21    -0.572 OA
HETATM  105  O9  NGY C   6      23.963   6.953  47.018  1.00 38.01    -0.572 OA
ENDBRANCH 101 102
ENDBRANCH 100 101
ENDBRANCH  89 100
ENDBRANCH  84  85
ENDBRANCH  77  84
BRANCH  78 106
HETATM  106  C6  BDP C   5      18.135  14.351  44.636  1.00 29.31     0.206 C 
HETATM  107  O6A BDP C   5      18.316  15.286  45.456  1.00 32.10    -0.646 OA
HETATM  108  O6B BDP C   5      18.165  14.590  43.401  1.00 26.46    -0.646 OA
ENDBRANCH  78 106
ENDBRANCH  73  74
ENDBRANCH   4  73
TORSDOF 38
ENDMDL
MODEL 5
REMARK VINA RESULT:      -8.4      3.733      6.114
REMARK WARNING: 32 MAX_TORS EXCEEDED!!!
REMARK  38 active torsions:
REMARK  status: ('A' for Active; 'I' for Inactive)
REMARK    1  A    between atoms: C2_2  and  O2_3 
REMARK    2  A    between atoms: C3_5  and  O3_6 
REMARK    3  A    between atoms: C4_8  and  O4_9 
REMARK    4  A    between atoms: O4_9  and  C1_15 
REMARK    5  A    between atoms: C5_10  and  C6_12 
REMARK    6  A    between atoms: S1_17  and  N2_19 
REMARK    7  A    between atoms: C2_18  and  N2_19 
REMARK    8  A    between atoms: S2_22  and  O6_34 
REMARK    9  A    between atoms: C3_23  and  O3_24 
REMARK   10  A    between atoms: C4_27  and  O4_28 
REMARK   11  A    between atoms: O4_28  and  C1_36 
REMARK   12  A    between atoms: C5_30  and  C6_33 
REMARK   13  A    between atoms: C6_33  and  O6_34 
REMARK   14  A    between atoms: C2_38  and  O2_39 
REMARK   15  A    between atoms: O2_39  and  S_52 
REMARK   16  A    between atoms: C3_41  and  O3_42 
REMARK   17  A    between atoms: C4_45  and  O4_46 
REMARK   18  A    between atoms: O4_46  and  C1_53 
REMARK   19  A    between atoms: C5_47  and  C6_49 
REMARK   20  A    between atoms: S1_55  and  N2_57 
REMARK   21  A    between atoms: C2_56  and  N2_57 
REMARK   22  A    between atoms: S2_60  and  O6_72 
REMARK   23  A    between atoms: C3_61  and  O3_62 
REMARK   24  A    between atoms: C4_65  and  O4_66 
REMARK   25  A    between atoms: O4_66  and  C1_74 
REMARK   26  A    between atoms: C5_68  and  C6_71 
REMARK   27  A    between atoms: C6_71  and  O6_72 
REMARK   28  A    between atoms: C2_75  and  O2_76 
REMARK   29  A    between atoms: C3_78  and  O3_79 
REMARK   30  A    between atoms: C4_81  and  O4_82 
REMARK   31  A    between atoms: O4_82  and  C1_88 
REMARK   32  A    between atoms: C5_83  and  C6_85 
REMARK   33  A    between atoms: C2_89  and  N2_90 
REMARK       I    between atoms: N2_90  and  C7_102 
REMARK   34  A    between atoms: C3_92  and  O3_93 
REMARK   35  A    between atoms: C4_95  and  O4_96 
REMARK   36  A    between atoms: C5_98  and  C6_100 
REMARK   37  A    between atoms: C6_100  and  O6_101 
REMARK   38  A    between atoms: O6_101  and  S_108 
ROOT
HETATM    1  C1  SGN C   4      10.559  11.092  45.508  1.00 25.95     0.287 C 
HETATM    2  C2  SGN C   4      11.291   9.853  44.983  1.00 24.33     0.182 C 
HETATM    3  C3  SGN C   4      12.445   9.450  45.897  1.00 24.72     0.178 C 
HETATM    4  C4  SGN C   4      13.374  10.631  46.128  1.00 24.11     0.186 C 
HETATM    5  C5  SGN C   4      12.529  11.827  46.570  1.00 25.01     0.181 C 
HETATM    6  O5  SGN C   4      11.513  12.128  45.631  1.00 24.61    -0.349 OA
ENDROOT
BRANCH   1   7
HETATM    7  O4  IDS C   3       9.859  10.824  46.751  1.00 24.52    -0.348 OA
BRANCH   7   8
HETATM    8  C4  IDS C   3       9.106  11.929  47.156  1.00 32.57     0.195 C 
HETATM    9  C3  IDS C   3       7.817  12.055  46.391  1.00 36.22     0.185 C 
HETATM   10  C2  IDS C   3       6.635  11.335  47.002  1.00 37.49     0.231 C 
HETATM   11  C1  IDS C   3       6.633  11.402  48.499  1.00 32.35     0.294 C 
HETATM   12  O5  IDS C   3       7.860  10.998  48.969  1.00 29.95    -0.340 OA
HETATM   13  C5  IDS C   3       8.839  11.907  48.637  1.00 31.73     0.257 C 
BRANCH   9  14
HETATM   14  O3  IDS C   3       7.490  13.394  46.308  1.00 35.64    -0.390 OA
ATOM     15  H3  IDS C   3       6.656  13.457  45.859  1.00  0.00     0.210 HD
ENDBRANCH   9  14
BRANCH  10  16
HETATM   16  O2  IDS C   3       6.585  10.018  46.578  1.00 41.30    -0.244 OA
BRANCH  16  17
HETATM   17  S   IDS C   3       5.345   9.525  45.950  1.00 46.67     0.252 S 
HETATM   18  O1S IDS C   3       4.260   9.573  46.896  1.00 45.84    -0.572 OA
HETATM   19  O2S IDS C   3       5.087  10.406  44.803  1.00 43.53    -0.572 OA
HETATM   20  O3S IDS C   3       5.511   8.166  45.492  1.00 50.85    -0.572 OA
ENDBRANCH  16  17
ENDBRANCH  10  16
BRANCH  11  21
HETATM   21  O4  SGN C   2       6.207  12.717  48.934  1.00 35.63    -0.348 OA
BRANCH  21  22
HETATM   22  C4  SGN C   2       6.104  12.838  50.347  1.00 34.14     0.186 C 
HETATM   23  C3  SGN C   2       6.611  14.225  50.725  1.00 36.01     0.178 C 
HETATM   24  C2  SGN C   2       6.290  14.626  52.167  1.00 38.29     0.182 C 
HETATM   25  C1  SGN C   2       4.836  14.318  52.525  1.00 40.25     0.287 C 
HETATM   26  O5  SGN C   2       4.549  12.969  52.212  1.00 40.44    -0.349 OA
HETATM   27  C5  SGN C   2       4.658  12.690  50.819  1.00 39.12     0.181 C 
BRANCH  23  28
HETATM   28  O3  SGN C   2       8.002  14.298  50.520  1.00 37.94    -0.391 OA
ATOM     29  H3  SGN C   2       8.445  13.795  51.193  1.00  0.00     0.210 HD
ENDBRANCH  23  28
BRANCH  24  30
HETATM   30  N2  SGN C   2       6.555  16.048  52.283  1.00 38.07    -0.289 N 
ATOM     31  H2  SGN C   2       6.195  16.677  51.564  1.00  0.00     0.175 HD
BRANCH  30  32
HETATM   32  S1  SGN C   2       7.393  16.662  53.498  1.00 51.36     0.205 S 
HETATM   33  O1S SGN C   2       6.741  17.903  53.901  1.00 53.59    -0.578 OA
HETATM   34  O2S SGN C   2       7.357  15.682  54.579  1.00 50.52    -0.578 OA
HETATM   35  O3S SGN C   2       8.738  16.885  52.977  1.00 54.39    -0.578 OA
ENDBRANCH  30  32
ENDBRANCH  24  30
BRANCH  25  36
HETATM   36  O4  BDP C   1       3.976  15.254  51.836  1.00 42.04    -0.348 OA
BRANCH  36  37
HETATM   37  C4  BDP C   1       2.873  15.621  52.592  1.00 48.48     0.195 C 
HETATM   38  C3  BDP C   1       3.145  16.935  53.247  1.00 51.01     0.181 C 
HETATM   39  C2  BDP C   1       1.904  17.552  53.794  1.00 53.01     0.173 C 
HETATM   40  C1  BDP C   1       0.809  17.558  52.785  1.00 54.14     0.203 C 
HETATM   41  O5  BDP C   1       0.598  16.263  52.359  1.00 54.15    -0.370 OA
HETATM   42  C5  BDP C   1       1.681  15.728  51.676  1.00 51.87     0.253 C 
BRANCH  38  43
HETATM   43  O3  BDP C   1       4.027  16.754  54.295  1.00 52.92    -0.390 OA
ATOM     44  H3  BDP C   1       4.892  17.005  53.995  1.00  0.00     0.210 HD
ENDBRANCH  38  43
BRANCH  39  45
HETATM   45  O2  BDP C   1       2.169  18.859  54.156  1.00 53.19    -0.391 OA
ATOM     46  H2  BDP C   1       1.988  19.419  53.411  1.00  0.00     0.210 HD
ENDBRANCH  39  45
BRANCH  42  47
HETATM   47  C6  BDP C   1       1.283  14.402  51.100  1.00 51.57     0.205 C 
HETATM   48  O6A BDP C   1       0.880  13.485  51.862  1.00 52.65    -0.646 OA
HETATM   49  O6B BDP C   1       1.359  14.204  49.858  1.00 51.09    -0.646 OA
ENDBRANCH  42  47
ENDBRANCH  36  37
ENDBRANCH  25  36
BRANCH  27  50
HETATM   50  C6  SGN C   2       4.091  11.304  50.527  1.00 42.92     0.227 C 
BRANCH  50  51
HETATM   51  O6  SGN C   2       3.493  10.766  51.686  1.00 46.75    -0.254 OA
BRANCH  51  52
HETATM   52  S2  SGN C   2       3.114   9.249  51.743  1.00 56.56     0.251 S 
HETATM   53  O4S SGN C   2       1.717   9.142  51.326  1.00 58.52    -0.572 OA
HETATM   54  O5S SGN C   2       4.004   8.523  50.845  1.00 53.95    -0.572 OA
HETATM   55  O6S SGN C   2       3.308   8.811  53.119  1.00 54.13    -0.572 OA
ENDBRANCH  51  52
ENDBRANCH  50  51
ENDBRANCH  27  50
ENDBRANCH  21  22
ENDBRANCH  11  21
BRANCH  13  56
HETATM   56  C6  IDS C   3      10.089  11.530  49.367  1.00 33.29     0.206 C 
HETATM   57  O6A IDS C   3      10.187  10.404  49.921  1.00 34.35    -0.646 OA
HETATM   58  O6B IDS C   3      11.045  12.348  49.436  1.00 34.80    -0.646 OA
ENDBRANCH  13  56
ENDBRANCH   7   8
ENDBRANCH   1   7
BRANCH   2  59
HETATM   59  N2  SGN C   4      10.385   8.731  44.816  1.00 24.47    -0.289 N 
ATOM     60  H2  SGN C   4      10.232   8.055  45.565  1.00  0.00     0.175 HD
BRANCH  59  61
HETATM   61  S1  SGN C   4       9.638   8.598  43.411  1.00 23.01     0.205 S 
HETATM   62  O1S SGN C   4      10.627   8.720  42.355  1.00 23.82    -0.578 OA
HETATM   63  O2S SGN C   4       9.003   7.284  43.365  1.00 21.15    -0.578 OA
HETATM   64  O3S SGN C   4       8.659   9.682  43.392  1.00 24.34    -0.578 OA
ENDBRANCH  59  61
ENDBRANCH   2  59
BRANCH   3  65
HETATM   65  O3  SGN C   4      13.158   8.377  45.312  1.00 24.01    -0.391 OA
ATOM     66  H3  SGN C   4      13.530   7.833  45.997  1.00  0.00     0.210 HD
ENDBRANCH   3  65
BRANCH   5  67
HETATM   67  C6  SGN C   4      13.368  13.082  46.769  1.00 29.42     0.227 C 
BRANCH  67  68
HETATM   68  O6  SGN C   4      14.059  13.408  45.583  1.00 33.38    -0.254 OA
BRANCH  68  69
HETATM   69  S2  SGN C   4      15.348  14.296  45.699  1.00 42.75     0.251 S 
HETATM   70  O4S SGN C   4      15.040  15.597  45.118  1.00 44.95    -0.572 OA
HETATM   71  O5S SGN C   4      15.655  14.364  47.120  1.00 42.87    -0.572 OA
HETATM   72  O6S SGN C   4      16.410  13.608  44.976  1.00 40.27    -0.572 OA
ENDBRANCH  68  69
ENDBRANCH  67  68
ENDBRANCH   5  67
BRANCH   4  73
HETATM   73  O4  SGN C   4      14.282  10.267  47.158  1.00 25.89    -0.348 OA
BRANCH  73  74
HETATM   74  C1  BDP C   5      15.624  10.758  46.958  1.00 28.36     0.292 C 
HETATM   75  C2  BDP C   5      16.278  11.029  48.279  1.00 31.13     0.204 C 
HETATM   76  C3  BDP C   5      17.623  11.637  48.090  1.00 33.85     0.183 C 
HETATM   77  C4  BDP C   5      18.461  10.837  47.149  1.00 31.81     0.195 C 
HETATM   78  C5  BDP C   5      17.655  10.460  45.926  1.00 27.14     0.257 C 
HETATM   79  O5  BDP C   5      16.436   9.871  46.269  1.00 24.75    -0.340 OA
BRANCH  75  80
HETATM   80  O2  BDP C   5      15.510  11.899  49.038  1.00 34.37    -0.388 OA
ATOM     81  H2  BDP C   5      15.993  12.694  49.231  1.00  0.00     0.210 HD
ENDBRANCH  75  80
BRANCH  76  82
HETATM   82  O3  BDP C   5      18.233  11.703  49.329  1.00 34.34    -0.390 OA
ATOM     83  H3  BDP C   5      17.755  11.130  49.918  1.00  0.00     0.210 HD
ENDBRANCH  76  82
BRANCH  77  84
HETATM   84  O4  BDP C   5      19.547  11.602  46.724  1.00 33.34    -0.348 OA
BRANCH  84  85
HETATM   85  C1  NGY C   6      20.746  11.414  47.512  1.00 35.33     0.286 C 
HETATM   86  C2  NGY C   6      21.418  12.737  47.675  1.00 39.33     0.170 C 
HETATM   87  C3  NGY C   6      21.902  13.187  46.341  1.00 39.13     0.177 C 
HETATM   88  C4  NGY C   6      22.852  12.169  45.816  1.00 37.06     0.180 C 
HETATM   89  C5  NGY C   6      22.112  10.875  45.713  1.00 32.98     0.181 C 
HETATM   90  O5  NGY C   6      21.648  10.523  46.963  1.00 32.46    -0.349 OA
BRANCH  86  91
HETATM   91  N2  NGY C   6      20.476  13.691  48.173  1.00 39.90    -0.349 N 
HETATM   92  C7  NGY C   6      20.893  14.712  49.081  1.00 44.73     0.214 C 
HETATM   93  O7  NGY C   6      22.060  14.777  49.440  1.00 46.19    -0.274 OA
HETATM   94  C8  NGY C   6      19.890  15.696  49.586  1.00 43.79     0.117 C 
ATOM     95  H2  NGY C   6      19.501  13.643  47.878  1.00  0.00     0.163 HD
ENDBRANCH  86  91
BRANCH  87  96
HETATM   96  O3  NGY C   6      22.523  14.412  46.445  1.00 44.02    -0.391 OA
ATOM     97  H3  NGY C   6      23.450  14.330  46.254  1.00  0.00     0.210 HD
ENDBRANCH  87  96
BRANCH  88  98
HETATM   98  O4  NGY C   6      23.298  12.557  44.572  1.00 37.39    -0.390 OA
ATOM     99  H4  NGY C   6      22.609  13.033  44.124  1.00  0.00     0.210 HD
ENDBRANCH  88  98
BRANCH  89 100
HETATM  100  C6  NGY C   6      22.977   9.793  45.145  1.00 31.91     0.227 C 
BRANCH 100 101
HETATM  101  O6  NGY C   6      23.254   8.811  46.077  1.00 36.15    -0.254 OA
BRANCH 101 102
HETATM  102  S   NGY C   6      24.636   8.302  46.226  1.00 34.85     0.251 S 
HETATM  103  O7A NGY C   6      25.262   8.162  44.938  1.00 33.41    -0.572 OA
HETATM  104  O8  NGY C   6      24.506   7.002  46.883  1.00 30.21    -0.572 OA
HETATM  105  O9  NGY C   6      25.395   9.228  47.034  1.00 38.01    -0.572 OA
ENDBRANCH 101 102
ENDBRANCH 100 101
ENDBRANCH  89 100
ENDBRANCH  84  85
ENDBRANCH  77  84
BRANCH  78 106
HETATM  106  C6  BDP C   5      18.406   9.571  44.982  1.00 29.31     0.206 C 
HETATM  107  O6A BDP C   5      18.196   9.657  43.746  1.00 32.10    -0.646 OA
HETATM  108  O6B BDP C   5      19.231   8.727  45.418  1.00 26.46    -0.646 OA
ENDBRANCH  78 106
ENDBRANCH  73  74
ENDBRANCH   4  73
TORSDOF 38
ENDMDL
MODEL 6
REMARK VINA RESULT:      -8.3      1.393      2.339
REMARK WARNING: 32 MAX_TORS EXCEEDED!!!
REMARK  38 active torsions:
REMARK  status: ('A' for Active; 'I' for Inactive)
REMARK    1  A    between atoms: C2_2  and  O2_3 
REMARK    2  A    between atoms: C3_5  and  O3_6 
REMARK    3  A    between atoms: C4_8  and  O4_9 
REMARK    4  A    between atoms: O4_9  and  C1_15 
REMARK    5  A    between atoms: C5_10  and  C6_12 
REMARK    6  A    between atoms: S1_17  and  N2_19 
REMARK    7  A    between atoms: C2_18  and  N2_19 
REMARK    8  A    between atoms: S2_22  and  O6_34 
REMARK    9  A    between atoms: C3_23  and  O3_24 
REMARK   10  A    between atoms: C4_27  and  O4_28 
REMARK   11  A    between atoms: O4_28  and  C1_36 
REMARK   12  A    between atoms: C5_30  and  C6_33 
REMARK   13  A    between atoms: C6_33  and  O6_34 
REMARK   14  A    between atoms: C2_38  and  O2_39 
REMARK   15  A    between atoms: O2_39  and  S_52 
REMARK   16  A    between atoms: C3_41  and  O3_42 
REMARK   17  A    between atoms: C4_45  and  O4_46 
REMARK   18  A    between atoms: O4_46  and  C1_53 
REMARK   19  A    between atoms: C5_47  and  C6_49 
REMARK   20  A    between atoms: S1_55  and  N2_57 
REMARK   21  A    between atoms: C2_56  and  N2_57 
REMARK   22  A    between atoms: S2_60  and  O6_72 
REMARK   23  A    between atoms: C3_61  and  O3_62 
REMARK   24  A    between atoms: C4_65  and  O4_66 
REMARK   25  A    between atoms: O4_66  and  C1_74 
REMARK   26  A    between atoms: C5_68  and  C6_71 
REMARK   27  A    between atoms: C6_71  and  O6_72 
REMARK   28  A    between atoms: C2_75  and  O2_76 
REMARK   29  A    between atoms: C3_78  and  O3_79 
REMARK   30  A    between atoms: C4_81  and  O4_82 
REMARK   31  A    between atoms: O4_82  and  C1_88 
REMARK   32  A    between atoms: C5_83  and  C6_85 
REMARK   33  A    between atoms: C2_89  and  N2_90 
REMARK       I    between atoms: N2_90  and  C7_102 
REMARK   34  A    between atoms: C3_92  and  O3_93 
REMARK   35  A    between atoms: C4_95  and  O4_96 
REMARK   36  A    between atoms: C5_98  and  C6_100 
REMARK   37  A    between atoms: C6_100  and  O6_101 
REMARK   38  A    between atoms: O6_101  and  S_108 
ROOT
HETATM    1  C1  SGN C   4      11.985  10.117  45.538  1.00 25.95     0.287 C 
HETATM    2  C2  SGN C   4      13.141   9.173  45.888  1.00 24.33     0.182 C 
HETATM    3  C3  SGN C   4      14.167   9.849  46.793  1.00 24.72     0.178 C 
HETATM    4  C4  SGN C   4      14.638  11.156  46.176  1.00 24.11     0.186 C 
HETATM    5  C5  SGN C   4      13.406  11.978  45.795  1.00 25.01     0.181 C 
HETATM    6  O5  SGN C   4      12.545  11.263  44.929  1.00 24.61    -0.349 OA
ENDROOT
BRANCH   1   7
HETATM    7  O4  IDS C   3      11.175  10.437  46.698  1.00 24.52    -0.348 OA
BRANCH   7   8
HETATM    8  C4  IDS C   3      10.431  11.601  46.489  1.00 32.57     0.195 C 
HETATM    9  C3  IDS C   3       9.632  11.549  45.217  1.00 36.22     0.185 C 
HETATM   10  C2  IDS C   3       8.238  10.978  45.356  1.00 37.49     0.231 C 
HETATM   11  C1  IDS C   3       7.582  11.374  46.643  1.00 32.35     0.294 C 
HETATM   12  O5  IDS C   3       8.429  11.089  47.687  1.00 29.95    -0.340 OA
HETATM   13  C5  IDS C   3       9.536  11.906  47.660  1.00 31.73     0.257 C 
BRANCH   9  14
HETATM   14  O3  IDS C   3       9.506  12.836  44.730  1.00 35.64    -0.390 OA
ATOM     15  H3  IDS C   3       8.826  13.267  45.234  1.00  0.00     0.210 HD
ENDBRANCH   9  14
BRANCH  10  16
HETATM   16  O2  IDS C   3       8.254   9.600  45.227  1.00 41.30    -0.244 OA
BRANCH  16  17
HETATM   17  S   IDS C   3       7.880   9.007  43.930  1.00 46.67     0.252 S 
HETATM   18  O1S IDS C   3       6.834   8.033  44.115  1.00 45.84    -0.572 OA
HETATM   19  O2S IDS C   3       7.423  10.119  43.086  1.00 43.53    -0.572 OA
HETATM   20  O3S IDS C   3       9.017   8.365  43.315  1.00 50.85    -0.572 OA
ENDBRANCH  16  17
ENDBRANCH  10  16
BRANCH  11  21
HETATM   21  O4  SGN C   2       7.136  12.751  46.567  1.00 35.63    -0.348 OA
BRANCH  21  22
HETATM   22  C4  SGN C   2       5.832  12.892  46.015  1.00 34.14     0.186 C 
HETATM   23  C3  SGN C   2       5.956  12.731  44.504  1.00 36.01     0.178 C 
HETATM   24  C2  SGN C   2       4.613  12.556  43.792  1.00 38.29     0.182 C 
HETATM   25  C1  SGN C   2       3.725  11.539  44.509  1.00 40.25     0.287 C 
HETATM   26  O5  SGN C   2       3.625  11.882  45.877  1.00 40.44    -0.349 OA
HETATM   27  C5  SGN C   2       4.878  11.827  46.554  1.00 39.12     0.181 C 
BRANCH  23  28
HETATM   28  O3  SGN C   2       6.632  13.839  43.959  1.00 37.94    -0.391 OA
ATOM     29  H3  SGN C   2       6.042  14.316  43.387  1.00  0.00     0.210 HD
ENDBRANCH  23  28
BRANCH  24  30
HETATM   30  N2  SGN C   2       4.902  12.120  42.439  1.00 38.07    -0.289 N 
ATOM     31  H2  SGN C   2       5.324  11.202  42.296  1.00  0.00     0.175 HD
BRANCH  30  32
HETATM   32  S1  SGN C   2       4.581  13.029  41.163  1.00 51.36     0.205 S 
HETATM   33  O1S SGN C   2       3.156  13.338  41.188  1.00 53.59    -0.578 OA
HETATM   34  O2S SGN C   2       5.378  14.245  41.295  1.00 50.52    -0.578 OA
HETATM   35  O3S SGN C   2       4.956  12.227  40.003  1.00 54.39    -0.578 OA
ENDBRANCH  30  32
ENDBRANCH  24  30
BRANCH  25  36
HETATM   36  O4  BDP C   1       4.265  10.214  44.295  1.00 42.04    -0.348 OA
BRANCH  36  37
HETATM   37  C4  BDP C   1       3.278   9.249  44.168  1.00 48.48     0.195 C 
HETATM   38  C3  BDP C   1       2.081   9.667  44.957  1.00 51.01     0.181 C 
HETATM   39  C2  BDP C   1       0.875   8.867  44.606  1.00 53.01     0.173 C 
HETATM   40  C1  BDP C   1       0.675   8.800  43.131  1.00 54.14     0.203 C 
HETATM   41  O5  BDP C   1       1.820   8.290  42.556  1.00 54.15    -0.370 OA
HETATM   42  C5  BDP C   1       2.925   9.117  42.709  1.00 51.87     0.253 C 
BRANCH  38  43
HETATM   43  O3  BDP C   1       2.331   9.490  46.304  1.00 52.92    -0.390 OA
ATOM     44  H3  BDP C   1       1.960  10.230  46.770  1.00  0.00     0.210 HD
ENDBRANCH  38  43
BRANCH  39  45
HETATM   45  O2  BDP C   1      -0.240   9.454  45.170  1.00 53.19    -0.391 OA
ATOM     46  H2  BDP C   1       0.045  10.021  45.877  1.00  0.00     0.210 HD
ENDBRANCH  39  45
BRANCH  42  47
HETATM   47  C6  BDP C   1       4.058   8.565  41.896  1.00 51.57     0.205 C 
HETATM   48  O6A BDP C   1       4.328   7.338  41.951  1.00 52.65    -0.646 OA
HETATM   49  O6B BDP C   1       4.743   9.331  41.166  1.00 51.09    -0.646 OA
ENDBRANCH  42  47
ENDBRANCH  36  37
ENDBRANCH  25  36
BRANCH  27  50
HETATM   50  C6  SGN C   2       4.655  11.953  48.057  1.00 42.92     0.227 C 
BRANCH  50  51
HETATM   51  O6  SGN C   2       3.610  11.101  48.471  1.00 46.75    -0.254 OA
BRANCH  51  52
HETATM   52  S2  SGN C   2       3.900   9.922  49.457  1.00 56.56     0.251 S 
HETATM   53  O4S SGN C   2       5.174   9.330  49.054  1.00 58.52    -0.572 OA
HETATM   54  O5S SGN C   2       3.959  10.465  50.809  1.00 53.95    -0.572 OA
HETATM   55  O6S SGN C   2       2.797   8.979  49.334  1.00 54.13    -0.572 OA
ENDBRANCH  51  52
ENDBRANCH  50  51
ENDBRANCH  27  50
ENDBRANCH  21  22
ENDBRANCH  11  21
BRANCH  13  56
HETATM   56  C6  IDS C   3      10.292  11.705  48.936  1.00 33.29     0.206 C 
HETATM   57  O6A IDS C   3      10.011  10.744  49.697  1.00 34.35    -0.646 OA
HETATM   58  O6B IDS C   3      11.209  12.510  49.253  1.00 34.80    -0.646 OA
ENDBRANCH  13  56
ENDBRANCH   7   8
ENDBRANCH   1   7
BRANCH   2  59
HETATM   59  N2  SGN C   4      12.661   7.955  46.516  1.00 24.47    -0.289 N 
ATOM     60  H2  SGN C   4      11.808   7.946  47.076  1.00  0.00     0.175 HD
BRANCH  59  61
HETATM   61  S1  SGN C   4      13.525   6.630  46.295  1.00 23.01     0.205 S 
HETATM   62  O1S SGN C   4      12.617   5.546  45.965  1.00 23.82    -0.578 OA
HETATM   63  O2S SGN C   4      14.448   6.877  45.192  1.00 21.15    -0.578 OA
HETATM   64  O3S SGN C   4      14.224   6.412  47.558  1.00 24.34    -0.578 OA
ENDBRANCH  59  61
ENDBRANCH   2  59
BRANCH   3  65
HETATM   65  O3  SGN C   4      15.266   8.981  46.993  1.00 24.01    -0.391 OA
ATOM     66  H3  SGN C   4      16.045   9.492  47.176  1.00  0.00     0.210 HD
ENDBRANCH   3  65
BRANCH   5  67
HETATM   67  C6  SGN C   4      13.778  13.287  45.109  1.00 29.42     0.227 C 
BRANCH  67  68
HETATM   68  O6  SGN C   4      12.715  14.209  45.195  1.00 33.38    -0.254 OA
BRANCH  68  69
HETATM   69  S2  SGN C   4      12.174  14.840  43.863  1.00 42.75     0.251 S 
HETATM   70  O4S SGN C   4      10.813  15.295  44.111  1.00 44.95    -0.572 OA
HETATM   71  O5S SGN C   4      13.089  15.925  43.539  1.00 42.87    -0.572 OA
HETATM   72  O6S SGN C   4      12.231  13.800  42.842  1.00 40.27    -0.572 OA
ENDBRANCH  68  69
ENDBRANCH  67  68
ENDBRANCH   5  67
BRANCH   4  73
HETATM   73  O4  SGN C   4      15.400  11.843  47.157  1.00 25.89    -0.348 OA
BRANCH  73  74
HETATM   74  C1  BDP C   5      16.797  11.987  46.822  1.00 28.36     0.292 C 
HETATM   75  C2  BDP C   5      17.556  12.533  47.993  1.00 31.13     0.204 C 
HETATM   76  C3  BDP C   5      18.977  12.788  47.631  1.00 33.85     0.183 C 
HETATM   77  C4  BDP C   5      19.608  11.592  47.001  1.00 31.81     0.195 C 
HETATM   78  C5  BDP C   5      18.684  11.007  45.955  1.00 27.14     0.257 C 
HETATM   79  O5  BDP C   5      17.399  10.793  46.458  1.00 24.75    -0.340 OA
BRANCH  75  80
HETATM   80  O2  BDP C   5      16.997  13.725  48.430  1.00 34.37    -0.388 OA
ATOM     81  H2  BDP C   5      17.569  14.457  48.233  1.00  0.00     0.210 HD
ENDBRANCH  75  80
BRANCH  76  82
HETATM   82  O3  BDP C   5      19.652  13.125  48.789  1.00 34.34    -0.390 OA
ATOM     83  H3  BDP C   5      20.106  12.348  49.096  1.00  0.00     0.210 HD
ENDBRANCH  76  82
BRANCH  77  84
HETATM   84  O4  BDP C   5      20.790  11.968  46.363  1.00 33.34    -0.348 OA
BRANCH  84  85
HETATM   85  C1  NGY C   6      21.983  11.738  47.148  1.00 35.33     0.286 C 
HETATM   86  C2  NGY C   6      22.871  12.931  47.021  1.00 39.33     0.170 C 
HETATM   87  C3  NGY C   6      23.347  13.016  45.613  1.00 39.13     0.177 C 
HETATM   88  C4  NGY C   6      24.087  11.766  45.290  1.00 37.06     0.180 C 
HETATM   89  C5  NGY C   6      23.142  10.624  45.471  1.00 32.98     0.181 C 
HETATM   90  O5  NGY C   6      22.696  10.614  46.776  1.00 32.46    -0.349 OA
BRANCH  86  91
HETATM   91  N2  NGY C   6      22.126  14.113  47.332  1.00 39.90    -0.349 N 
HETATM   92  C7  NGY C   6      22.528  14.958  48.411  1.00 44.73     0.214 C 
HETATM   93  O7  NGY C   6      23.513  14.676  49.079  1.00 46.19    -0.274 OA
HETATM   94  C8  NGY C   6      21.734  16.185  48.713  1.00 43.79     0.117 C 
ATOM     95  H2  NGY C   6      21.304  14.354  46.779  1.00  0.00     0.163 HD
ENDBRANCH  86  91
BRANCH  87  96
HETATM   96  O3  NGY C   6      24.166  14.113  45.451  1.00 44.02    -0.391 OA
ATOM     97  H3  NGY C   6      23.692  14.911  45.651  1.00  0.00     0.210 HD
ENDBRANCH  87  96
BRANCH  88  98
HETATM   98  O4  NGY C   6      24.522  11.817  43.985  1.00 37.39    -0.390 OA
ATOM     99  H4  NGY C   6      25.471  11.795  43.967  1.00  0.00     0.210 HD
ENDBRANCH  88  98
BRANCH  89 100
HETATM  100  C6  NGY C   6      23.785   9.319  45.120  1.00 31.91     0.227 C 
BRANCH 100 101
HETATM  101  O6  NGY C   6      25.009   9.164  45.743  1.00 36.15    -0.254 OA
BRANCH 101 102
HETATM  102  S   NGY C   6      25.315   7.911  46.469  1.00 34.85     0.251 S 
HETATM  103  O7A NGY C   6      26.147   8.183  47.613  1.00 33.41    -0.572 OA
HETATM  104  O8  NGY C   6      26.017   7.062  45.509  1.00 30.21    -0.572 OA
HETATM  105  O9  NGY C   6      24.079   7.305  46.905  1.00 38.01    -0.572 OA
ENDBRANCH 101 102
ENDBRANCH 100 101
ENDBRANCH  89 100
ENDBRANCH  84  85
ENDBRANCH  77  84
BRANCH  78 106
HETATM  106  C6  BDP C   5      19.214   9.743  45.349  1.00 29.31     0.206 C 
HETATM  107  O6A BDP C   5      18.721   9.313  44.276  1.00 32.10    -0.646 OA
HETATM  108  O6B BDP C   5      20.134   9.098  45.915  1.00 26.46    -0.646 OA
ENDBRANCH  78 106
ENDBRANCH  73  74
ENDBRANCH   4  73
TORSDOF 38
ENDMDL
MODEL 7
REMARK VINA RESULT:      -8.1      2.783     14.455
REMARK WARNING: 32 MAX_TORS EXCEEDED!!!
REMARK  38 active torsions:
REMARK  status: ('A' for Active; 'I' for Inactive)
REMARK    1  A    between atoms: C2_2  and  O2_3 
REMARK    2  A    between atoms: C3_5  and  O3_6 
REMARK    3  A    between atoms: C4_8  and  O4_9 
REMARK    4  A    between atoms: O4_9  and  C1_15 
REMARK    5  A    between atoms: C5_10  and  C6_12 
REMARK    6  A    between atoms: S1_17  and  N2_19 
REMARK    7  A    between atoms: C2_18  and  N2_19 
REMARK    8  A    between atoms: S2_22  and  O6_34 
REMARK    9  A    between atoms: C3_23  and  O3_24 
REMARK   10  A    between atoms: C4_27  and  O4_28 
REMARK   11  A    between atoms: O4_28  and  C1_36 
REMARK   12  A    between atoms: C5_30  and  C6_33 
REMARK   13  A    between atoms: C6_33  and  O6_34 
REMARK   14  A    between atoms: C2_38  and  O2_39 
REMARK   15  A    between atoms: O2_39  and  S_52 
REMARK   16  A    between atoms: C3_41  and  O3_42 
REMARK   17  A    between atoms: C4_45  and  O4_46 
REMARK   18  A    between atoms: O4_46  and  C1_53 
REMARK   19  A    between atoms: C5_47  and  C6_49 
REMARK   20  A    between atoms: S1_55  and  N2_57 
REMARK   21  A    between atoms: C2_56  and  N2_57 
REMARK   22  A    between atoms: S2_60  and  O6_72 
REMARK   23  A    between atoms: C3_61  and  O3_62 
REMARK   24  A    between atoms: C4_65  and  O4_66 
REMARK   25  A    between atoms: O4_66  and  C1_74 
REMARK   26  A    between atoms: C5_68  and  C6_71 
REMARK   27  A    between atoms: C6_71  and  O6_72 
REMARK   28  A    between atoms: C2_75  and  O2_76 
REMARK   29  A    between atoms: C3_78  and  O3_79 
REMARK   30  A    between atoms: C4_81  and  O4_82 
REMARK   31  A    between atoms: O4_82  and  C1_88 
REMARK   32  A    between atoms: C5_83  and  C6_85 
REMARK   33  A    between atoms: C2_89  and  N2_90 
REMARK       I    between atoms: N2_90  and  C7_102 
REMARK   34  A    between atoms: C3_92  and  O3_93 
REMARK   35  A    between atoms: C4_95  and  O4_96 
REMARK   36  A    between atoms: C5_98  and  C6_100 
REMARK   37  A    between atoms: C6_100  and  O6_101 
REMARK   38  A    between atoms: O6_101  and  S_108 
ROOT
HETATM    1  C1  SGN C   4      12.979   9.768  47.412  1.00 25.95     0.287 C 
HETATM    2  C2  SGN C   4      12.559   8.940  46.194  1.00 24.33     0.182 C 
HETATM    3  C3  SGN C   4      11.930   9.809  45.109  1.00 24.72     0.178 C 
HETATM    4  C4  SGN C   4      10.789  10.632  45.686  1.00 24.11     0.186 C 
HETATM    5  C5  SGN C   4      11.298  11.349  46.936  1.00 25.01     0.181 C 
HETATM    6  O5  SGN C   4      11.828  10.441  47.884  1.00 24.61    -0.349 OA
ENDROOT
BRANCH   1   7
HETATM    7  O4  IDS C   3      14.070  10.673  47.104  1.00 24.52    -0.348 OA
BRANCH   7   8
HETATM    8  C4  IDS C   3      15.024  10.683  48.125  1.00 32.57     0.195 C 
HETATM    9  C3  IDS C   3      16.190   9.782  47.828  1.00 36.22     0.185 C 
HETATM   10  C2  IDS C   3      17.335  10.438  47.088  1.00 37.49     0.231 C 
HETATM   11  C1  IDS C   3      17.567  11.852  47.526  1.00 32.35     0.294 C 
HETATM   12  O5  IDS C   3      16.377  12.540  47.475  1.00 29.95    -0.340 OA
HETATM   13  C5  IDS C   3      15.500  12.078  48.428  1.00 31.73     0.257 C 
BRANCH   9  14
HETATM   14  O3  IDS C   3      16.687   9.306  49.025  1.00 35.64    -0.390 OA
ATOM     15  H3  IDS C   3      17.156   8.501  48.839  1.00  0.00     0.210 HD
ENDBRANCH   9  14
BRANCH  10  16
HETATM   16  O2  IDS C   3      17.135  10.384  45.719  1.00 41.30    -0.244 OA
BRANCH  16  17
HETATM   17  S   IDS C   3      18.310  10.249  44.838  1.00 46.67     0.252 S 
HETATM   18  O1S IDS C   3      18.864  11.549  44.553  1.00 45.84    -0.572 OA
HETATM   19  O2S IDS C   3      19.274   9.412  45.564  1.00 43.53    -0.572 OA
HETATM   20  O3S IDS C   3      17.947   9.609  43.597  1.00 50.85    -0.572 OA
ENDBRANCH  16  17
ENDBRANCH  10  16
BRANCH  11  21
HETATM   21  O4  SGN C   2      18.235  11.867  48.812  1.00 35.63    -0.348 OA
BRANCH  21  22
HETATM   22  C4  SGN C   2      19.439  12.624  48.813  1.00 34.14     0.186 C 
HETATM   23  C3  SGN C   2      20.259  12.177  47.608  1.00 36.01     0.178 C 
HETATM   24  C2  SGN C   2      21.442  13.097  47.294  1.00 38.29     0.182 C 
HETATM   25  C1  SGN C   2      21.030  14.569  47.321  1.00 40.25     0.287 C 
HETATM   26  O5  SGN C   2      20.374  14.852  48.541  1.00 40.44    -0.349 OA
HETATM   27  C5  SGN C   2      19.160  14.122  48.698  1.00 39.12     0.181 C 
BRANCH  23  28
HETATM   28  O3  SGN C   2      20.731  10.866  47.811  1.00 37.94    -0.391 OA
ATOM     29  H3  SGN C   2      21.552  10.752  47.346  1.00  0.00     0.210 HD
ENDBRANCH  23  28
BRANCH  24  30
HETATM   30  N2  SGN C   2      21.930  12.726  45.978  1.00 38.07    -0.289 N 
ATOM     31  H2  SGN C   2      21.513  13.163  45.156  1.00  0.00     0.175 HD
BRANCH  30  32
HETATM   32  S1  SGN C   2      23.101  11.657  45.774  1.00 51.36     0.205 S 
HETATM   33  O1S SGN C   2      24.073  12.236  44.852  1.00 53.59    -0.578 OA
HETATM   34  O2S SGN C   2      23.703  11.428  47.085  1.00 50.52    -0.578 OA
HETATM   35  O3S SGN C   2      22.457  10.467  45.228  1.00 54.39    -0.578 OA
ENDBRANCH  30  32
ENDBRANCH  24  30
BRANCH  25  36
HETATM   36  O4  BDP C   1      20.214  14.849  46.161  1.00 42.04    -0.348 OA
BRANCH  36  37
HETATM   37  C4  BDP C   1      20.488  16.087  45.601  1.00 48.48     0.195 C 
HETATM   38  C3  BDP C   1      21.192  15.891  44.300  1.00 51.01     0.181 C 
HETATM   39  C2  BDP C   1      21.219  17.139  43.487  1.00 53.01     0.173 C 
HETATM   40  C1  BDP C   1      19.868  17.758  43.394  1.00 54.14     0.203 C 
HETATM   41  O5  BDP C   1      19.399  17.983  44.671  1.00 54.15    -0.370 OA
HETATM   42  C5  BDP C   1      19.185  16.814  45.390  1.00 51.87     0.253 C 
BRANCH  38  43
HETATM   43  O3  BDP C   1      22.498  15.508  44.535  1.00 52.92    -0.390 OA
ATOM     44  H3  BDP C   1      23.058  16.256  44.356  1.00  0.00     0.210 HD
ENDBRANCH  38  43
BRANCH  39  45
HETATM   45  O2  BDP C   1      21.650  16.839  42.209  1.00 53.19    -0.391 OA
ATOM     46  H2  BDP C   1      20.976  16.327  41.778  1.00  0.00     0.210 HD
ENDBRANCH  39  45
BRANCH  42  47
HETATM   47  C6  BDP C   1      18.507  17.158  46.682  1.00 51.57     0.205 C 
HETATM   48  O6A BDP C   1      19.112  17.849  47.542  1.00 52.65    -0.646 OA
HETATM   49  O6B BDP C   1      17.336  16.750  46.909  1.00 51.09    -0.646 OA
ENDBRANCH  42  47
ENDBRANCH  36  37
ENDBRANCH  25  36
BRANCH  27  50
HETATM   50  C6  SGN C   2      18.387  14.662  49.897  1.00 42.92     0.227 C 
BRANCH  50  51
HETATM   51  O6  SGN C   2      18.916  14.139  51.096  1.00 46.75    -0.254 OA
BRANCH  51  52
HETATM   52  S2  SGN C   2      17.959  13.706  52.255  1.00 56.56     0.251 S 
HETATM   53  O4S SGN C   2      17.337  14.923  52.774  1.00 58.52    -0.572 OA
HETATM   54  O5S SGN C   2      16.970  12.785  51.708  1.00 53.95    -0.572 OA
HETATM   55  O6S SGN C   2      18.777  13.040  53.259  1.00 54.13    -0.572 OA
ENDBRANCH  51  52
ENDBRANCH  50  51
ENDBRANCH  27  50
ENDBRANCH  21  22
ENDBRANCH  11  21
BRANCH  13  56
HETATM   56  C6  IDS C   3      14.330  13.010  48.471  1.00 33.29     0.206 C 
HETATM   57  O6A IDS C   3      13.501  12.947  49.416  1.00 34.35    -0.646 OA
HETATM   58  O6B IDS C   3      14.168  13.855  47.551  1.00 34.80    -0.646 OA
ENDBRANCH  13  56
ENDBRANCH   7   8
ENDBRANCH   1   7
BRANCH   2  59
HETATM   59  N2  SGN C   4      13.680   8.202  45.641  1.00 24.47    -0.289 N 
ATOM     60  H2  SGN C   4      14.274   8.603  44.914  1.00  0.00     0.175 HD
BRANCH  59  61
HETATM   61  S1  SGN C   4      13.947   6.736  46.216  1.00 23.01     0.205 S 
HETATM   62  O1S SGN C   4      15.040   6.145  45.467  1.00 23.82    -0.578 OA
HETATM   63  O2S SGN C   4      14.305   6.867  47.625  1.00 21.15    -0.578 OA
HETATM   64  O3S SGN C   4      12.688   6.018  46.034  1.00 24.34    -0.578 OA
ENDBRANCH  59  61
ENDBRANCH   2  59
BRANCH   3  65
HETATM   65  O3  SGN C   4      11.456   8.987  44.060  1.00 24.01    -0.391 OA
ATOM     66  H3  SGN C   4      10.774   8.414  44.389  1.00  0.00     0.210 HD
ENDBRANCH   3  65
BRANCH   5  67
HETATM   67  C6  SGN C   4      10.203  12.155  47.623  1.00 29.42     0.227 C 
BRANCH  67  68
HETATM   68  O6  SGN C   4       9.105  11.328  47.938  1.00 33.38    -0.254 OA
BRANCH  68  69
HETATM   69  S2  SGN C   4       8.426  11.505  49.343  1.00 42.75     0.251 S 
HETATM   70  O4S SGN C   4       9.235  10.785  50.317  1.00 44.95    -0.572 OA
HETATM   71  O5S SGN C   4       8.385  12.940  49.585  1.00 42.87    -0.572 OA
HETATM   72  O6S SGN C   4       7.077  10.963  49.239  1.00 40.27    -0.572 OA
ENDBRANCH  68  69
ENDBRANCH  67  68
ENDBRANCH   5  67
BRANCH   4  73
HETATM   73  O4  SGN C   4      10.403  11.580  44.701  1.00 25.89    -0.348 OA
BRANCH  73  74
HETATM   74  C1  BDP C   5       9.014  11.497  44.318  1.00 28.36     0.292 C 
HETATM   75  C2  BDP C   5       8.855  11.859  42.872  1.00 31.13     0.204 C 
HETATM   76  C3  BDP C   5       7.417  11.883  42.488  1.00 33.85     0.183 C 
HETATM   77  C4  BDP C   5       6.721  10.623  42.880  1.00 31.81     0.195 C 
HETATM   78  C5  BDP C   5       7.089  10.246  44.298  1.00 27.14     0.257 C 
HETATM   79  O5  BDP C   5       8.472  10.234  44.491  1.00 24.75    -0.340 OA
BRANCH  75  80
HETATM   80  O2  BDP C   5       9.395  13.111  42.616  1.00 34.37    -0.388 OA
ATOM     81  H2  BDP C   5       9.428  13.633  43.409  1.00  0.00     0.210 HD
ENDBRANCH  75  80
BRANCH  76  82
HETATM   82  O3  BDP C   5       7.350  12.055  41.118  1.00 34.34    -0.390 OA
ATOM     83  H3  BDP C   5       6.931  11.285  40.750  1.00  0.00     0.210 HD
ENDBRANCH  76  82
BRANCH  77  84
HETATM   84  O4  BDP C   5       5.341  10.817  42.835  1.00 33.34    -0.348 OA
BRANCH  84  85
HETATM   85  C1  NGY C   6       4.717  10.343  41.619  1.00 35.33     0.286 C 
HETATM   86  C2  NGY C   6       3.623  11.289  41.248  1.00 39.33     0.170 C 
HETATM   87  C3  NGY C   6       2.557  11.206  42.284  1.00 39.13     0.177 C 
HETATM   88  C4  NGY C   6       2.056   9.806  42.334  1.00 37.06     0.180 C 
HETATM   89  C5  NGY C   6       3.212   8.926  42.678  1.00 32.98     0.181 C 
HETATM   90  O5  NGY C   6       4.189   9.070  41.715  1.00 32.46    -0.349 OA
BRANCH  86  91
HETATM   91  N2  NGY C   6       4.138  12.624  41.217  1.00 39.90    -0.349 N 
HETATM   92  C7  NGY C   6       3.713  13.540  40.207  1.00 44.73     0.214 C 
HETATM   93  O7  NGY C   6       2.905  13.188  39.359  1.00 46.19    -0.274 OA
HETATM   94  C8  NGY C   6       4.265  14.926  40.198  1.00 43.79     0.117 C 
ATOM     95  H2  NGY C   6       4.812  12.923  41.922  1.00  0.00     0.163 HD
ENDBRANCH  86  91
BRANCH  87  96
HETATM   96  O3  NGY C   6       1.529  12.073  41.983  1.00 44.02    -0.391 OA
ATOM     97  H3  NGY C   6       0.707  11.741  42.325  1.00  0.00     0.210 HD
ENDBRANCH  87  96
BRANCH  88  98
HETATM   98  O4  NGY C   6       1.080   9.703  43.300  1.00 37.39    -0.390 OA
ATOM     99  H4  NGY C   6       0.977  10.541  43.735  1.00  0.00     0.210 HD
ENDBRANCH  88  98
BRANCH  89 100
HETATM  100  C6  NGY C   6       2.794   7.494  42.799  1.00 31.91     0.227 C 
BRANCH 100 101
HETATM  101  O6  NGY C   6       2.120   7.251  43.982  1.00 36.15    -0.254 OA
BRANCH 101 102
HETATM  102  S   NGY C   6       0.947   6.349  43.992  1.00 34.85     0.251 S 
HETATM  103  O7A NGY C   6       1.213   5.170  43.209  1.00 33.41    -0.572 OA
HETATM  104  O8  NGY C   6      -0.147   7.122  43.406  1.00 30.21    -0.572 OA
HETATM  105  O9  NGY C   6       0.655   5.969  45.353  1.00 38.01    -0.572 OA
ENDBRANCH 101 102
ENDBRANCH 100 101
ENDBRANCH  89 100
ENDBRANCH  84  85
ENDBRANCH  77  84
BRANCH  78 106
HETATM  106  C6  BDP C   5       6.501   8.934  44.725  1.00 29.31     0.206 C 
HETATM  107  O6A BDP C   5       6.059   8.801  45.893  1.00 32.10    -0.646 OA
HETATM  108  O6B BDP C   5       6.464   7.960  43.929  1.00 26.46    -0.646 OA
ENDBRANCH  78 106
ENDBRANCH  73  74
ENDBRANCH   4  73
TORSDOF 38
ENDMDL
MODEL 8
REMARK VINA RESULT:      -8.1      3.360     15.514
REMARK WARNING: 32 MAX_TORS EXCEEDED!!!
REMARK  38 active torsions:
REMARK  status: ('A' for Active; 'I' for Inactive)
REMARK    1  A    between atoms: C2_2  and  O2_3 
REMARK    2  A    between atoms: C3_5  and  O3_6 
REMARK    3  A    between atoms: C4_8  and  O4_9 
REMARK    4  A    between atoms: O4_9  and  C1_15 
REMARK    5  A    between atoms: C5_10  and  C6_12 
REMARK    6  A    between atoms: S1_17  and  N2_19 
REMARK    7  A    between atoms: C2_18  and  N2_19 
REMARK    8  A    between atoms: S2_22  and  O6_34 
REMARK    9  A    between atoms: C3_23  and  O3_24 
REMARK   10  A    between atoms: C4_27  and  O4_28 
REMARK   11  A    between atoms: O4_28  and  C1_36 
REMARK   12  A    between atoms: C5_30  and  C6_33 
REMARK   13  A    between atoms: C6_33  and  O6_34 
REMARK   14  A    between atoms: C2_38  and  O2_39 
REMARK   15  A    between atoms: O2_39  and  S_52 
REMARK   16  A    between atoms: C3_41  and  O3_42 
REMARK   17  A    between atoms: C4_45  and  O4_46 
REMARK   18  A    between atoms: O4_46  and  C1_53 
REMARK   19  A    between atoms: C5_47  and  C6_49 
REMARK   20  A    between atoms: S1_55  and  N2_57 
REMARK   21  A    between atoms: C2_56  and  N2_57 
REMARK   22  A    between atoms: S2_60  and  O6_72 
REMARK   23  A    between atoms: C3_61  and  O3_62 
REMARK   24  A    between atoms: C4_65  and  O4_66 
REMARK   25  A    between atoms: O4_66  and  C1_74 
REMARK   26  A    between atoms: C5_68  and  C6_71 
REMARK   27  A    between atoms: C6_71  and  O6_72 
REMARK   28  A    between atoms: C2_75  and  O2_76 
REMARK   29  A    between atoms: C3_78  and  O3_79 
REMARK   30  A    between atoms: C4_81  and  O4_82 
REMARK   31  A    between atoms: O4_82  and  C1_88 
REMARK   32  A    between atoms: C5_83  and  C6_85 
REMARK   33  A    between atoms: C2_89  and  N2_90 
REMARK       I    between atoms: N2_90  and  C7_102 
REMARK   34  A    between atoms: C3_92  and  O3_93 
REMARK   35  A    between atoms: C4_95  and  O4_96 
REMARK   36  A    between atoms: C5_98  and  C6_100 
REMARK   37  A    between atoms: C6_100  and  O6_101 
REMARK   38  A    between atoms: O6_101  and  S_108 
ROOT
HETATM    1  C1  SGN C   4       7.101  10.890  44.930  1.00 25.95     0.287 C 
HETATM    2  C2  SGN C   4       5.833  10.129  45.328  1.00 24.33     0.182 C 
HETATM    3  C3  SGN C   4       5.355   9.204  44.213  1.00 24.72     0.178 C 
HETATM    4  C4  SGN C   4       5.195   9.980  42.914  1.00 24.11     0.186 C 
HETATM    5  C5  SGN C   4       6.485  10.760  42.660  1.00 25.01     0.181 C 
HETATM    6  O5  SGN C   4       6.810  11.607  43.746  1.00 24.61    -0.349 OA
ENDROOT
BRANCH   1   7
HETATM    7  O4  IDS C   3       8.242  10.006  44.783  1.00 24.52    -0.348 OA
BRANCH   7   8
HETATM    8  C4  IDS C   3       9.362  10.698  44.315  1.00 32.57     0.195 C 
HETATM    9  C3  IDS C   3       9.617  11.963  45.087  1.00 36.22     0.185 C 
HETATM   10  C2  IDS C   3      10.521  11.810  46.291  1.00 37.49     0.231 C 
HETATM   11  C1  IDS C   3      11.633  10.835  46.052  1.00 32.35     0.294 C 
HETATM   12  O5  IDS C   3      11.106   9.659  45.573  1.00 29.95    -0.340 OA
HETATM   13  C5  IDS C   3      10.590   9.829  44.309  1.00 31.73     0.257 C 
BRANCH   9  14
HETATM   14  O3  IDS C   3      10.207  12.879  44.238  1.00 35.64    -0.390 OA
ATOM     15  H3  IDS C   3       9.511  13.372  43.821  1.00  0.00     0.210 HD
ENDBRANCH   9  14
BRANCH  10  16
HETATM   16  O2  IDS C   3       9.795  11.448  47.412  1.00 41.30    -0.244 OA
BRANCH  16  17
HETATM   17  S   IDS C   3      10.045  12.163  48.677  1.00 46.67     0.252 S 
HETATM   18  O1S IDS C   3      10.675  11.280  49.625  1.00 45.84    -0.572 OA
HETATM   19  O2S IDS C   3      10.921  13.294  48.344  1.00 43.53    -0.572 OA
HETATM   20  O3S IDS C   3       8.810  12.654  49.239  1.00 50.85    -0.572 OA
ENDBRANCH  16  17
ENDBRANCH  10  16
BRANCH  11  21
HETATM   21  O4  SGN C   2      12.651  11.441  45.218  1.00 35.63    -0.348 OA
BRANCH  21  22
HETATM   22  C4  SGN C   2      13.557  12.265  45.941  1.00 34.14     0.186 C 
HETATM   23  C3  SGN C   2      14.096  11.439  47.104  1.00 36.01     0.178 C 
HETATM   24  C2  SGN C   2      15.302  12.074  47.802  1.00 38.29     0.182 C 
HETATM   25  C1  SGN C   2      16.336  12.574  46.793  1.00 40.25     0.287 C 
HETATM   26  O5  SGN C   2      15.701  13.407  45.843  1.00 40.44    -0.349 OA
HETATM   27  C5  SGN C   2      14.726  12.716  45.066  1.00 39.12     0.181 C 
BRANCH  23  28
HETATM   28  O3  SGN C   2      13.075  11.218  48.048  1.00 37.94    -0.391 OA
ATOM     29  H3  SGN C   2      13.235  11.754  48.816  1.00  0.00     0.210 HD
ENDBRANCH  23  28
BRANCH  24  30
HETATM   30  N2  SGN C   2      15.877  11.058  48.664  1.00 38.07    -0.289 N 
ATOM     31  H2  SGN C   2      16.336  10.252  48.238  1.00  0.00     0.175 HD
BRANCH  30  32
HETATM   32  S1  SGN C   2      15.816  11.159  50.258  1.00 51.36     0.205 S 
HETATM   33  O1S SGN C   2      14.444  11.491  50.628  1.00 53.59    -0.578 OA
HETATM   34  O2S SGN C   2      16.193   9.849  50.783  1.00 50.52    -0.578 OA
HETATM   35  O3S SGN C   2      16.760  12.211  50.623  1.00 54.39    -0.578 OA
ENDBRANCH  30  32
ENDBRANCH  24  30
BRANCH  25  36
HETATM   36  O4  BDP C   1      16.996  11.435  46.196  1.00 42.04    -0.348 OA
BRANCH  36  37
HETATM   37  C4  BDP C   1      18.377  11.560  46.194  1.00 48.48     0.195 C 
HETATM   38  C3  BDP C   1      18.945  10.725  47.293  1.00 51.01     0.181 C 
HETATM   39  C2  BDP C   1      20.416  10.538  47.148  1.00 53.01     0.173 C 
HETATM   40  C1  BDP C   1      20.778  10.108  45.769  1.00 54.14     0.203 C 
HETATM   41  O5  BDP C   1      20.283  11.036  44.876  1.00 54.15    -0.370 OA
HETATM   42  C5  BDP C   1      18.896  11.094  44.858  1.00 51.87     0.253 C 
BRANCH  38  43
HETATM   43  O3  BDP C   1      18.713  11.340  48.508  1.00 52.92    -0.390 OA
ATOM     44  H3  BDP C   1      18.301  12.179  48.336  1.00  0.00     0.210 HD
ENDBRANCH  38  43
BRANCH  39  45
HETATM   45  O2  BDP C   1      20.840   9.566  48.032  1.00 53.19    -0.391 OA
ATOM     46  H2  BDP C   1      20.190   9.482  48.720  1.00  0.00     0.210 HD
ENDBRANCH  39  45
BRANCH  42  47
HETATM   47  C6  BDP C   1      18.464  11.988  43.734  1.00 51.57     0.205 C 
HETATM   48  O6A BDP C   1      18.145  11.488  42.624  1.00 52.65    -0.646 OA
HETATM   49  O6B BDP C   1      18.428  13.237  43.899  1.00 51.09    -0.646 OA
ENDBRANCH  42  47
ENDBRANCH  36  37
ENDBRANCH  25  36
BRANCH  27  50
HETATM   50  C6  SGN C   2      14.275  13.598  43.906  1.00 42.92     0.227 C 
BRANCH  50  51
HETATM   51  O6  SGN C   2      15.082  13.365  42.773  1.00 46.75    -0.254 OA
BRANCH  51  52
HETATM   52  S2  SGN C   2      15.644  14.570  41.947  1.00 56.56     0.251 S 
HETATM   53  O4S SGN C   2      16.080  15.581  42.908  1.00 58.52    -0.572 OA
HETATM   54  O5S SGN C   2      16.751  14.086  41.131  1.00 53.95    -0.572 OA
HETATM   55  O6S SGN C   2      14.559  15.052  41.102  1.00 54.13    -0.572 OA
ENDBRANCH  51  52
ENDBRANCH  50  51
ENDBRANCH  27  50
ENDBRANCH  21  22
ENDBRANCH  11  21
BRANCH  13  56
HETATM   56  C6  IDS C   3      10.247   8.479  43.762  1.00 33.29     0.206 C 
HETATM   57  O6A IDS C   3      10.128   7.492  44.533  1.00 34.35    -0.646 OA
HETATM   58  O6B IDS C   3      10.088   8.328  42.521  1.00 34.80    -0.646 OA
ENDBRANCH  13  56
ENDBRANCH   7   8
ENDBRANCH   1   7
BRANCH   2  59
HETATM   59  N2  SGN C   4       6.033   9.363  46.546  1.00 24.47    -0.289 N 
ATOM     60  H2  SGN C   4       6.713   8.604  46.591  1.00  0.00     0.175 HD
BRANCH  59  61
HETATM   61  S1  SGN C   4       5.143   9.758  47.812  1.00 23.01     0.205 S 
HETATM   62  O1S SGN C   4       3.744   9.639  47.441  1.00 23.82    -0.578 OA
HETATM   63  O2S SGN C   4       5.465   8.830  48.891  1.00 21.15    -0.578 OA
HETATM   64  O3S SGN C   4       5.523  11.131  48.135  1.00 24.34    -0.578 OA
ENDBRANCH  59  61
ENDBRANCH   2  59
BRANCH   3  65
HETATM   65  O3  SGN C   4       4.124   8.614  44.582  1.00 24.01    -0.391 OA
ATOM     66  H3  SGN C   4       4.286   7.866  45.145  1.00  0.00     0.210 HD
ENDBRANCH   3  65
BRANCH   5  67
HETATM   67  C6  SGN C   4       6.398  11.621  41.406  1.00 29.42     0.227 C 
BRANCH  67  68
HETATM   68  O6  SGN C   4       6.280  12.984  41.750  1.00 33.38    -0.254 OA
BRANCH  68  69
HETATM   69  S2  SGN C   4       4.934  13.717  41.413  1.00 42.75     0.251 S 
HETATM   70  O4S SGN C   4       4.038  13.536  42.547  1.00 44.95    -0.572 OA
HETATM   71  O5S SGN C   4       5.288  15.110  41.181  1.00 42.87    -0.572 OA
HETATM   72  O6S SGN C   4       4.409  13.112  40.195  1.00 40.27    -0.572 OA
ENDBRANCH  68  69
ENDBRANCH  67  68
ENDBRANCH   5  67
BRANCH   4  73
HETATM   73  O4  SGN C   4       4.980   9.036  41.875  1.00 25.89    -0.348 OA
BRANCH  73  74
HETATM   74  C1  BDP C   5       3.790   9.281  41.096  1.00 28.36     0.292 C 
HETATM   75  C2  BDP C   5       2.945   8.045  41.041  1.00 31.13     0.204 C 
HETATM   76  C3  BDP C   5       1.767   8.247  40.153  1.00 33.85     0.183 C 
HETATM   77  C4  BDP C   5       1.014   9.484  40.512  1.00 31.81     0.195 C 
HETATM   78  C5  BDP C   5       1.973  10.635  40.722  1.00 27.14     0.257 C 
HETATM   79  O5  BDP C   5       3.001  10.300  41.606  1.00 24.75    -0.340 OA
BRANCH  75  80
HETATM   80  O2  BDP C   5       3.676   6.970  40.556  1.00 34.37    -0.388 OA
ATOM     81  H2  BDP C   5       3.232   6.565  39.820  1.00  0.00     0.210 HD
ENDBRANCH  75  80
BRANCH  76  82
HETATM   82  O3  BDP C   5       0.949   7.140  40.281  1.00 34.34    -0.390 OA
ATOM     83  H3  BDP C   5       1.065   6.794  41.158  1.00  0.00     0.210 HD
ENDBRANCH  76  82
BRANCH  77  84
HETATM   84  O4  BDP C   5       0.156   9.829  39.468  1.00 33.34    -0.348 OA
BRANCH  84  85
HETATM   85  C1  NGY C   6      -1.126   9.162  39.512  1.00 35.33     0.286 C 
HETATM   86  C2  NGY C   6      -2.182  10.137  39.110  1.00 39.33     0.170 C 
HETATM   87  C3  NGY C   6      -2.265  11.198  40.152  1.00 39.13     0.177 C 
HETATM   88  C4  NGY C   6      -2.601  10.556  41.452  1.00 37.06     0.180 C 
HETATM   89  C5  NGY C   6      -1.516   9.577  41.763  1.00 32.98     0.181 C 
HETATM   90  O5  NGY C   6      -1.451   8.643  40.751  1.00 32.46    -0.349 OA
BRANCH  86  91
HETATM   91  N2  NGY C   6      -1.824  10.739  37.862  1.00 39.90    -0.349 N 
HETATM   92  C7  NGY C   6      -2.589  10.474  36.685  1.00 44.73     0.214 C 
HETATM   93  O7  NGY C   6      -3.556   9.727  36.736  1.00 46.19    -0.274 OA
HETATM   94  C8  NGY C   6      -2.194  11.115  35.397  1.00 43.79     0.117 C 
ATOM     95  H2  NGY C   6      -1.018  11.362  37.813  1.00  0.00     0.163 HD
ENDBRANCH  86  91
BRANCH  87  96
HETATM   96  O3  NGY C   6      -3.225  12.127  39.814  1.00 44.02    -0.391 OA
ATOM     97  H3  NGY C   6      -3.467  12.034  38.900  1.00  0.00     0.210 HD
ENDBRANCH  87  96
BRANCH  88  98
HETATM   98  O4  NGY C   6      -2.664  11.518  42.434  1.00 37.39    -0.390 OA
ATOM     99  H4  NGY C   6      -1.792  11.684  42.770  1.00  0.00     0.210 HD
ENDBRANCH  88  98
BRANCH  89 100
HETATM  100  C6  NGY C   6      -1.742   8.911  43.085  1.00 31.91     0.227 C 
BRANCH 100 101
HETATM  101  O6  NGY C   6      -0.796   9.286  44.020  1.00 36.15    -0.254 OA
BRANCH 101 102
HETATM  102  S   NGY C   6       0.377   8.419  44.272  1.00 34.85     0.251 S 
HETATM  103  O7A NGY C   6       0.329   7.885  45.608  1.00 33.41    -0.572 OA
HETATM  104  O8  NGY C   6       1.545   9.282  44.101  1.00 30.21    -0.572 OA
HETATM  105  O9  NGY C   6       0.377   7.336  43.318  1.00 38.01    -0.572 OA
ENDBRANCH 101 102
ENDBRANCH 100 101
ENDBRANCH  89 100
ENDBRANCH  84  85
ENDBRANCH  77  84
BRANCH  78 106
HETATM  106  C6  BDP C   5       1.290  11.888  41.182  1.00 29.31     0.206 C 
HETATM  107  O6A BDP C   5       0.891  11.979  42.370  1.00 32.10    -0.646 OA
HETATM  108  O6B BDP C   5       1.097  12.841  40.384  1.00 26.46    -0.646 OA
ENDBRANCH  78 106
ENDBRANCH  73  74
ENDBRANCH   4  73
TORSDOF 38
ENDMDL
MODEL 9
REMARK VINA RESULT:      -8.0      3.694      5.916
REMARK WARNING: 32 MAX_TORS EXCEEDED!!!
REMARK  38 active torsions:
REMARK  status: ('A' for Active; 'I' for Inactive)
REMARK    1  A    between atoms: C2_2  and  O2_3 
REMARK    2  A    between atoms: C3_5  and  O3_6 
REMARK    3  A    between atoms: C4_8  and  O4_9 
REMARK    4  A    between atoms: O4_9  and  C1_15 
REMARK    5  A    between atoms: C5_10  and  C6_12 
REMARK    6  A    between atoms: S1_17  and  N2_19 
REMARK    7  A    between atoms: C2_18  and  N2_19 
REMARK    8  A    between atoms: S2_22  and  O6_34 
REMARK    9  A    between atoms: C3_23  and  O3_24 
REMARK   10  A    between atoms: C4_27  and  O4_28 
REMARK   11  A    between atoms: O4_28  and  C1_36 
REMARK   12  A    between atoms: C5_30  and  C6_33 
REMARK   13  A    between atoms: C6_33  and  O6_34 
REMARK   14  A    between atoms: C2_38  and  O2_39 
REMARK   15  A    between atoms: O2_39  and  S_52 
REMARK   16  A    between atoms: C3_41  and  O3_42 
REMARK   17  A    between atoms: C4_45  and  O4_46 
REMARK   18  A    between atoms: O4_46  and  C1_53 
REMARK   19  A    between atoms: C5_47  and  C6_49 
REMARK   20  A    between atoms: S1_55  and  N2_57 
REMARK   21  A    between atoms: C2_56  and  N2_57 
REMARK   22  A    between atoms: S2_60  and  O6_72 
REMARK   23  A    between atoms: C3_61  and  O3_62 
REMARK   24  A    between atoms: C4_65  and  O4_66 
REMARK   25  A    between atoms: O4_66  and  C1_74 
REMARK   26  A    between atoms: C5_68  and  C6_71 
REMARK   27  A    between atoms: C6_71  and  O6_72 
REMARK   28  A    between atoms: C2_75  and  O2_76 
REMARK   29  A    between atoms: C3_78  and  O3_79 
REMARK   30  A    between atoms: C4_81  and  O4_82 
REMARK   31  A    between atoms: O4_82  and  C1_88 
REMARK   32  A    between atoms: C5_83  and  C6_85 
REMARK   33  A    between atoms: C2_89  and  N2_90 
REMARK       I    between atoms: N2_90  and  C7_102 
REMARK   34  A    between atoms: C3_92  and  O3_93 
REMARK   35  A    between atoms: C4_95  and  O4_96 
REMARK   36  A    between atoms: C5_98  and  C6_100 
REMARK   37  A    between atoms: C6_100  and  O6_101 
REMARK   38  A    between atoms: O6_101  and  S_108 
ROOT
HETATM    1  C1  SGN C   4      10.468  11.069  45.456  1.00 25.95     0.287 C 
HETATM    2  C2  SGN C   4      11.204   9.823  44.952  1.00 24.33     0.182 C 
HETATM    3  C3  SGN C   4      12.358   9.439  45.874  1.00 24.72     0.178 C 
HETATM    4  C4  SGN C   4      13.284  10.626  46.086  1.00 24.11     0.186 C 
HETATM    5  C5  SGN C   4      12.435  11.827  46.507  1.00 25.01     0.181 C 
HETATM    6  O5  SGN C   4      11.420  12.109  45.563  1.00 24.61    -0.349 OA
ENDROOT
BRANCH   1   7
HETATM    7  O4  IDS C   3       9.768  10.820  46.702  1.00 24.52    -0.348 OA
BRANCH   7   8
HETATM    8  C4  IDS C   3       9.013  11.930  47.089  1.00 32.57     0.195 C 
HETATM    9  C3  IDS C   3       7.710  12.024  46.346  1.00 36.22     0.185 C 
HETATM   10  C2  IDS C   3       6.545  11.314  47.000  1.00 37.49     0.231 C 
HETATM   11  C1  IDS C   3       6.571  11.425  48.494  1.00 32.35     0.294 C 
HETATM   12  O5  IDS C   3       7.810  11.044  48.952  1.00 29.95    -0.340 OA
HETATM   13  C5  IDS C   3       8.775  11.950  48.575  1.00 31.73     0.257 C 
BRANCH   9  14
HETATM   14  O3  IDS C   3       7.371  13.358  46.230  1.00 35.64    -0.390 OA
ATOM     15  H3  IDS C   3       6.655  13.524  46.832  1.00  0.00     0.210 HD
ENDBRANCH   9  14
BRANCH  10  16
HETATM   16  O2  IDS C   3       6.497   9.985  46.616  1.00 41.30    -0.244 OA
BRANCH  16  17
HETATM   17  S   IDS C   3       5.312   9.503  45.883  1.00 46.67     0.252 S 
HETATM   18  O1S IDS C   3       5.480   8.115  45.532  1.00 45.84    -0.572 OA
HETATM   19  O2S IDS C   3       4.169   9.684  46.788  1.00 43.53    -0.572 OA
HETATM   20  O3S IDS C   3       5.107  10.272  44.680  1.00 50.85    -0.572 OA
ENDBRANCH  16  17
ENDBRANCH  10  16
BRANCH  11  21
HETATM   21  O4  SGN C   2       6.142  12.748  48.899  1.00 35.63    -0.348 OA
BRANCH  21  22
HETATM   22  C4  SGN C   2       5.841  12.844  50.286  1.00 34.14     0.186 C 
HETATM   23  C3  SGN C   2       6.228  14.248  50.741  1.00 36.01     0.178 C 
HETATM   24  C2  SGN C   2       5.694  14.613  52.128  1.00 38.29     0.182 C 
HETATM   25  C1  SGN C   2       4.220  14.236  52.280  1.00 40.25     0.287 C 
HETATM   26  O5  SGN C   2       4.041  12.881  51.919  1.00 40.44    -0.349 OA
HETATM   27  C5  SGN C   2       4.352  12.626  50.552  1.00 39.12     0.181 C 
BRANCH  23  28
HETATM   28  O3  SGN C   2       7.629  14.385  50.730  1.00 37.94    -0.391 OA
ATOM     29  H3  SGN C   2       7.919  14.709  51.574  1.00  0.00     0.210 HD
ENDBRANCH  23  28
BRANCH  24  30
HETATM   30  N2  SGN C   2       5.876  16.043  52.290  1.00 38.07    -0.289 N 
ATOM     31  H2  SGN C   2       5.262  16.680  51.781  1.00  0.00     0.175 HD
BRANCH  30  32
HETATM   32  S1  SGN C   2       7.007  16.656  53.240  1.00 51.36     0.205 S 
HETATM   33  O1S SGN C   2       8.234  16.758  52.457  1.00 53.59    -0.578 OA
HETATM   34  O2S SGN C   2       6.545  17.977  53.656  1.00 50.52    -0.578 OA
HETATM   35  O3S SGN C   2       7.135  15.721  54.353  1.00 54.39    -0.578 OA
ENDBRANCH  30  32
ENDBRANCH  24  30
BRANCH  25  36
HETATM   36  O4  BDP C   1       3.421  15.143  51.486  1.00 42.04    -0.348 OA
BRANCH  36  37
HETATM   37  C4  BDP C   1       2.114  15.237  51.938  1.00 48.48     0.195 C 
HETATM   38  C3  BDP C   1       1.377  13.993  51.568  1.00 51.01     0.181 C 
HETATM   39  C2  BDP C   1       0.086  13.871  52.300  1.00 53.01     0.173 C 
HETATM   40  C1  BDP C   1       0.264  14.096  53.761  1.00 54.14     0.203 C 
HETATM   41  O5  BDP C   1       0.849  15.331  53.947  1.00 54.15    -0.370 OA
HETATM   42  C5  BDP C   1       2.137  15.409  53.435  1.00 51.87     0.253 C 
BRANCH  38  43
HETATM   43  O3  BDP C   1       1.100  14.006  50.215  1.00 52.92    -0.390 OA
ATOM     44  H3  BDP C   1       0.427  13.355  50.049  1.00  0.00     0.210 HD
ENDBRANCH  38  43
BRANCH  39  45
HETATM   45  O2  BDP C   1      -0.424  12.601  52.114  1.00 53.19    -0.391 OA
ATOM     46  H2  BDP C   1      -0.021  12.227  51.340  1.00  0.00     0.210 HD
ENDBRANCH  39  45
BRANCH  42  47
HETATM   47  C6  BDP C   1       2.745  16.715  53.850  1.00 51.57     0.205 C 
HETATM   48  O6A BDP C   1       2.267  17.795  53.414  1.00 52.65    -0.646 OA
HETATM   49  O6B BDP C   1       3.736  16.732  54.629  1.00 51.09    -0.646 OA
ENDBRANCH  42  47
ENDBRANCH  36  37
ENDBRANCH  25  36
BRANCH  27  50
HETATM   50  C6  SGN C   2       3.895  11.221  50.174  1.00 42.92     0.227 C 
BRANCH  50  51
HETATM   51  O6  SGN C   2       4.001  10.357  51.284  1.00 46.75    -0.254 OA
BRANCH  51  52
HETATM   52  S2  SGN C   2       2.769   9.506  51.738  1.00 56.56     0.251 S 
HETATM   53  O4S SGN C   2       1.624  10.413  51.802  1.00 58.52    -0.572 OA
HETATM   54  O5S SGN C   2       2.564   8.444  50.762  1.00 53.95    -0.572 OA
HETATM   55  O6S SGN C   2       3.094   8.945  53.043  1.00 54.13    -0.572 OA
ENDBRANCH  51  52
ENDBRANCH  50  51
ENDBRANCH  27  50
ENDBRANCH  21  22
ENDBRANCH  11  21
BRANCH  13  56
HETATM   56  C6  IDS C   3      10.042  11.603  49.292  1.00 33.29     0.206 C 
HETATM   57  O6A IDS C   3      10.168  10.487  49.857  1.00 34.35    -0.646 OA
HETATM   58  O6B IDS C   3      10.983  12.440  49.338  1.00 34.80    -0.646 OA
ENDBRANCH  13  56
ENDBRANCH   7   8
ENDBRANCH   1   7
BRANCH   2  59
HETATM   59  N2  SGN C   4      10.302   8.696  44.803  1.00 24.47    -0.289 N 
ATOM     60  H2  SGN C   4      10.158   8.026  45.560  1.00  0.00     0.175 HD
BRANCH  59  61
HETATM   61  S1  SGN C   4       9.542   8.547  43.406  1.00 23.01     0.205 S 
HETATM   62  O1S SGN C   4       8.522   9.577  43.331  1.00 23.82    -0.578 OA
HETATM   63  O2S SGN C   4      10.525   8.723  42.342  1.00 21.15    -0.578 OA
HETATM   64  O3S SGN C   4       8.979   7.199  43.417  1.00 24.34    -0.578 OA
ENDBRANCH  59  61
ENDBRANCH   2  59
BRANCH   3  65
HETATM   65  O3  SGN C   4      13.075   8.358  45.308  1.00 24.01    -0.391 OA
ATOM     66  H3  SGN C   4      12.728   8.163  44.446  1.00  0.00     0.210 HD
ENDBRANCH   3  65
BRANCH   5  67
HETATM   67  C6  SGN C   4      13.271  13.088  46.685  1.00 29.42     0.227 C 
BRANCH  67  68
HETATM   68  O6  SGN C   4      12.613  14.200  46.121  1.00 33.38    -0.254 OA
BRANCH  68  69
HETATM   69  S2  SGN C   4      12.043  15.292  47.095  1.00 42.75     0.251 S 
HETATM   70  O4S SGN C   4      12.747  15.162  48.364  1.00 44.95    -0.572 OA
HETATM   71  O5S SGN C   4      12.279  16.570  46.440  1.00 42.87    -0.572 OA
HETATM   72  O6S SGN C   4      10.613  15.042  47.230  1.00 40.27    -0.572 OA
ENDBRANCH  68  69
ENDBRANCH  67  68
ENDBRANCH   5  67
BRANCH   4  73
HETATM   73  O4  SGN C   4      14.192  10.282  47.123  1.00 25.89    -0.348 OA
BRANCH  73  74
HETATM   74  C1  BDP C   5      15.530  10.784  46.922  1.00 28.36     0.292 C 
HETATM   75  C2  BDP C   5      16.226  10.942  48.240  1.00 31.13     0.204 C 
HETATM   76  C3  BDP C   5      17.568  11.560  48.060  1.00 33.85     0.183 C 
HETATM   77  C4  BDP C   5      18.372  10.839  47.030  1.00 31.81     0.195 C 
HETATM   78  C5  BDP C   5      17.526  10.569  45.806  1.00 27.14     0.257 C 
HETATM   79  O5  BDP C   5      16.315   9.956  46.136  1.00 24.75    -0.340 OA
BRANCH  75  80
HETATM   80  O2  BDP C   5      15.486  11.748  49.093  1.00 34.37    -0.388 OA
ATOM     81  H2  BDP C   5      15.421  12.631  48.750  1.00  0.00     0.210 HD
ENDBRANCH  75  80
BRANCH  76  82
HETATM   82  O3  BDP C   5      18.216  11.520  49.280  1.00 34.34    -0.390 OA
ATOM     83  H3  BDP C   5      18.954  10.927  49.197  1.00  0.00     0.210 HD
ENDBRANCH  76  82
BRANCH  77  84
HETATM   84  O4  BDP C   5      19.448  11.634  46.637  1.00 33.34    -0.348 OA
BRANCH  84  85
HETATM   85  C1  NGY C   6      20.640  11.452  47.436  1.00 35.33     0.286 C 
HETATM   86  C2  NGY C   6      21.261  12.789  47.672  1.00 39.33     0.170 C 
HETATM   87  C3  NGY C   6      21.749  13.318  46.369  1.00 39.13     0.177 C 
HETATM   88  C4  NGY C   6      22.744  12.360  45.814  1.00 37.06     0.180 C 
HETATM   89  C5  NGY C   6      22.054  11.047  45.639  1.00 32.98     0.181 C 
HETATM   90  O5  NGY C   6      21.583  10.620  46.863  1.00 32.46    -0.349 OA
BRANCH  86  91
HETATM   91  N2  NGY C   6      20.277  13.685  48.197  1.00 39.90    -0.349 N 
HETATM   92  C7  NGY C   6      20.645  14.689  49.145  1.00 44.73     0.214 C 
HETATM   93  O7  NGY C   6      21.807  14.788  49.516  1.00 46.19    -0.274 OA
HETATM   94  C8  NGY C   6      19.599  15.611  49.677  1.00 43.79     0.117 C 
ATOM     95  H2  NGY C   6      19.306  13.607  47.893  1.00  0.00     0.163 HD
ENDBRANCH  86  91
BRANCH  87  96
HETATM   96  O3  NGY C   6      22.324  14.559  46.541  1.00 44.02    -0.391 OA
ATOM     97  H3  NGY C   6      21.700  15.161  46.928  1.00  0.00     0.210 HD
ENDBRANCH  87  96
BRANCH  88  98
HETATM   98  O4  NGY C   6      23.196  12.822  44.599  1.00 37.39    -0.390 OA
ATOM     99  H4  NGY C   6      22.492  13.278  44.153  1.00  0.00     0.210 HD
ENDBRANCH  88  98
BRANCH  89 100
HETATM  100  C6  NGY C   6      22.967  10.024  45.036  1.00 31.91     0.227 C 
BRANCH 100 101
HETATM  101  O6  NGY C   6      22.974   8.848  45.763  1.00 36.15    -0.254 OA
BRANCH 101 102
HETATM  102  S   NGY C   6      24.260   8.244  46.177  1.00 34.85     0.251 S 
HETATM  103  O7A NGY C   6      25.064   9.208  46.882  1.00 33.41    -0.572 OA
HETATM  104  O8  NGY C   6      24.916   7.831  44.937  1.00 30.21    -0.572 OA
HETATM  105  O9  NGY C   6      23.996   7.114  47.036  1.00 38.01    -0.572 OA
ENDBRANCH 101 102
ENDBRANCH 100 101
ENDBRANCH  89 100
ENDBRANCH  84  85
ENDBRANCH  77  84
BRANCH  78 106
HETATM  106  C6  BDP C   5      18.243   9.760  44.768  1.00 29.31     0.206 C 
HETATM  107  O6A BDP C   5      18.318  10.187  43.588  1.00 32.10    -0.646 OA
HETATM  108  O6B BDP C   5      18.753   8.648  45.062  1.00 26.46    -0.646 OA
ENDBRANCH  78 106
ENDBRANCH  73  74
ENDBRANCH   4  73
TORSDOF 38
ENDMDL
MODEL 10
REMARK VINA RESULT:      -8.0      3.279     15.886
REMARK WARNING: 32 MAX_TORS EXCEEDED!!!
REMARK  38 active torsions:
REMARK  status: ('A' for Active; 'I' for Inactive)
REMARK    1  A    between atoms: C2_2  and  O2_3 
REMARK    2  A    between atoms: C3_5  and  O3_6 
REMARK    3  A    between atoms: C4_8  and  O4_9 
REMARK    4  A    between atoms: O4_9  and  C1_15 
REMARK    5  A    between atoms: C5_10  and  C6_12 
REMARK    6  A    between atoms: S1_17  and  N2_19 
REMARK    7  A    between atoms: C2_18  and  N2_19 
REMARK    8  A    between atoms: S2_22  and  O6_34 
REMARK    9  A    between atoms: C3_23  and  O3_24 
REMARK   10  A    between atoms: C4_27  and  O4_28 
REMARK   11  A    between atoms: O4_28  and  C1_36 
REMARK   12  A    between atoms: C5_30  and  C6_33 
REMARK   13  A    between atoms: C6_33  and  O6_34 
REMARK   14  A    between atoms: C2_38  and  O2_39 
REMARK   15  A    between atoms: O2_39  and  S_52 
REMARK   16  A    between atoms: C3_41  and  O3_42 
REMARK   17  A    between atoms: C4_45  and  O4_46 
REMARK   18  A    between atoms: O4_46  and  C1_53 
REMARK   19  A    between atoms: C5_47  and  C6_49 
REMARK   20  A    between atoms: S1_55  and  N2_57 
REMARK   21  A    between atoms: C2_56  and  N2_57 
REMARK   22  A    between atoms: S2_60  and  O6_72 
REMARK   23  A    between atoms: C3_61  and  O3_62 
REMARK   24  A    between atoms: C4_65  and  O4_66 
REMARK   25  A    between atoms: O4_66  and  C1_74 
REMARK   26  A    between atoms: C5_68  and  C6_71 
REMARK   27  A    between atoms: C6_71  and  O6_72 
REMARK   28  A    between atoms: C2_75  and  O2_76 
REMARK   29  A    between atoms: C3_78  and  O3_79 
REMARK   30  A    between atoms: C4_81  and  O4_82 
REMARK   31  A    between atoms: O4_82  and  C1_88 
REMARK   32  A    between atoms: C5_83  and  C6_85 
REMARK   33  A    between atoms: C2_89  and  N2_90 
REMARK       I    between atoms: N2_90  and  C7_102 
REMARK   34  A    between atoms: C3_92  and  O3_93 
REMARK   35  A    between atoms: C4_95  and  O4_96 
REMARK   36  A    between atoms: C5_98  and  C6_100 
REMARK   37  A    between atoms: C6_100  and  O6_101 
REMARK   38  A    between atoms: O6_101  and  S_108 
ROOT
HETATM    1  C1  SGN C   4       7.065  10.953  44.941  1.00 25.95     0.287 C 
HETATM    2  C2  SGN C   4       5.854  10.233  45.542  1.00 24.33     0.182 C 
HETATM    3  C3  SGN C   4       5.286   9.189  44.586  1.00 24.72     0.178 C 
HETATM    4  C4  SGN C   4       4.988   9.817  43.233  1.00 24.11     0.186 C 
HETATM    5  C5  SGN C   4       6.234  10.571  42.769  1.00 25.01     0.181 C 
HETATM    6  O5  SGN C   4       6.650  11.534  43.720  1.00 24.61    -0.349 OA
ENDROOT
BRANCH   1   7
HETATM    7  O4  IDS C   3       8.201  10.065  44.780  1.00 24.52    -0.348 OA
BRANCH   7   8
HETATM    8  C4  IDS C   3       9.296  10.737  44.232  1.00 32.57     0.195 C 
HETATM    9  C3  IDS C   3       9.539  12.067  44.890  1.00 36.22     0.185 C 
HETATM   10  C2  IDS C   3      10.469  12.034  46.083  1.00 37.49     0.231 C 
HETATM   11  C1  IDS C   3      11.597  11.064  45.903  1.00 32.35     0.294 C 
HETATM   12  O5  IDS C   3      11.086   9.842  45.535  1.00 29.95    -0.340 OA
HETATM   13  C5  IDS C   3      10.543   9.895  44.273  1.00 31.73     0.257 C 
BRANCH   9  14
HETATM   14  O3  IDS C   3      10.093  12.920  43.955  1.00 35.64    -0.390 OA
ATOM     15  H3  IDS C   3       9.391  13.220  43.390  1.00  0.00     0.210 HD
ENDBRANCH   9  14
BRANCH  10  16
HETATM   16  O2  IDS C   3       9.773  11.753  47.245  1.00 41.30    -0.244 OA
BRANCH  16  17
HETATM   17  S   IDS C   3      10.293  12.271  48.524  1.00 46.67     0.252 S 
HETATM   18  O1S IDS C   3      11.334  13.237  48.278  1.00 45.84    -0.572 OA
HETATM   19  O2S IDS C   3       9.152  12.888  49.213  1.00 43.53    -0.572 OA
HETATM   20  O3S IDS C   3      10.827  11.200  49.330  1.00 50.85    -0.572 OA
ENDBRANCH  16  17
ENDBRANCH  10  16
BRANCH  11  21
HETATM   21  O4  SGN C   2      12.586  11.618  45.000  1.00 35.63    -0.348 OA
BRANCH  21  22
HETATM   22  C4  SGN C   2      13.643  12.296  45.668  1.00 34.14     0.186 C 
HETATM   23  C3  SGN C   2      14.322  11.288  46.588  1.00 36.01     0.178 C 
HETATM   24  C2  SGN C   2      15.660  11.775  47.152  1.00 38.29     0.182 C 
HETATM   25  C1  SGN C   2      16.537  12.392  46.062  1.00 40.25     0.287 C 
HETATM   26  O5  SGN C   2      15.800  13.376  45.365  1.00 40.44    -0.349 OA
HETATM   27  C5  SGN C   2      14.673  12.840  44.678  1.00 39.12     0.181 C 
BRANCH  23  28
HETATM   28  O3  SGN C   2      13.462  10.958  47.652  1.00 37.94    -0.391 OA
ATOM     29  H3  SGN C   2      13.130  11.755  48.048  1.00  0.00     0.210 HD
ENDBRANCH  23  28
BRANCH  24  30
HETATM   30  N2  SGN C   2      16.314  10.623  47.745  1.00 38.07    -0.289 N 
ATOM     31  H2  SGN C   2      16.742   9.929  47.133  1.00  0.00     0.175 HD
BRANCH  30  32
HETATM   32  S1  SGN C   2      16.388  10.407  49.328  1.00 51.36     0.205 S 
HETATM   33  O1S SGN C   2      15.091  10.778  49.885  1.00 53.59    -0.578 OA
HETATM   34  O2S SGN C   2      16.663   8.991  49.553  1.00 50.52    -0.578 OA
HETATM   35  O3S SGN C   2      17.462  11.277  49.795  1.00 54.39    -0.578 OA
ENDBRANCH  30  32
ENDBRANCH  24  30
BRANCH  25  36
HETATM   36  O4  BDP C   1      17.026  11.337  45.202  1.00 42.04    -0.348 OA
BRANCH  36  37
HETATM   37  C4  BDP C   1      18.270  11.622  44.662  1.00 48.48     0.195 C 
HETATM   38  C3  BDP C   1      18.220  12.959  43.998  1.00 51.01     0.181 C 
HETATM   39  C2  BDP C   1      19.582  13.481  43.694  1.00 53.01     0.173 C 
HETATM   40  C1  BDP C   1      20.478  13.391  44.880  1.00 54.14     0.203 C 
HETATM   41  O5  BDP C   1      20.511  12.080  45.306  1.00 54.15    -0.370 OA
HETATM   42  C5  BDP C   1      19.285  11.626  45.776  1.00 51.87     0.253 C 
BRANCH  38  43
HETATM   43  O3  BDP C   1      17.528  12.858  42.808  1.00 52.92    -0.390 OA
ATOM     44  H3  BDP C   1      17.501  11.940  42.563  1.00  0.00     0.210 HD
ENDBRANCH  38  43
BRANCH  39  45
HETATM   45  O2  BDP C   1      19.486  14.808  43.320  1.00 53.19    -0.391 OA
ATOM     46  H2  BDP C   1      19.198  14.844  42.416  1.00  0.00     0.210 HD
ENDBRANCH  39  45
BRANCH  42  47
HETATM   47  C6  BDP C   1      19.473  10.268  46.382  1.00 51.57     0.205 C 
HETATM   48  O6A BDP C   1      19.445  10.131  47.632  1.00 52.65    -0.646 OA
HETATM   49  O6B BDP C   1      19.665   9.266  45.641  1.00 51.09    -0.646 OA
ENDBRANCH  42  47
ENDBRANCH  36  37
ENDBRANCH  25  36
BRANCH  27  50
HETATM   50  C6  SGN C   2      14.084  13.900  43.752  1.00 42.92     0.227 C 
BRANCH  50  51
HETATM   51  O6  SGN C   2      14.716  13.854  42.492  1.00 46.75    -0.254 OA
BRANCH  51  52
HETATM   52  S2  SGN C   2      15.467  15.112  41.942  1.00 56.56     0.251 S 
HETATM   53  O4S SGN C   2      16.098  15.768  43.086  1.00 58.52    -0.572 OA
HETATM   54  O5S SGN C   2      16.451  14.664  40.965  1.00 53.95    -0.572 OA
HETATM   55  O6S SGN C   2      14.469  15.963  41.308  1.00 54.13    -0.572 OA
ENDBRANCH  51  52
ENDBRANCH  50  51
ENDBRANCH  27  50
ENDBRANCH  21  22
ENDBRANCH  11  21
BRANCH  13  56
HETATM   56  C6  IDS C   3      10.219   8.497  43.848  1.00 33.29     0.206 C 
HETATM   57  O6A IDS C   3      10.247   7.556  44.683  1.00 34.35    -0.646 OA
HETATM   58  O6B IDS C   3       9.926   8.260  42.645  1.00 34.80    -0.646 OA
ENDBRANCH  13  56
ENDBRANCH   7   8
ENDBRANCH   1   7
BRANCH   2  59
HETATM   59  N2  SGN C   4       6.183   9.607  46.810  1.00 24.47    -0.289 N 
ATOM     60  H2  SGN C   4       6.935   8.920  46.884  1.00  0.00     0.175 HD
BRANCH  59  61
HETATM   61  S1  SGN C   4       5.321  10.037  48.083  1.00 23.01     0.205 S 
HETATM   62  O1S SGN C   4       5.886  11.261  48.623  1.00 23.82    -0.578 OA
HETATM   63  O2S SGN C   4       3.949  10.260  47.640  1.00 21.15    -0.578 OA
HETATM   64  O3S SGN C   4       5.423   8.914  49.013  1.00 24.34    -0.578 OA
ENDBRANCH  59  61
ENDBRANCH   2  59
BRANCH   3  65
HETATM   65  O3  SGN C   4       4.106   8.636  45.136  1.00 24.01    -0.391 OA
ATOM     66  H3  SGN C   4       4.204   8.551  46.077  1.00  0.00     0.210 HD
ENDBRANCH   3  65
BRANCH   5  67
HETATM   67  C6  SGN C   4       6.012  11.289  41.444  1.00 29.42     0.227 C 
BRANCH  67  68
HETATM   68  O6  SGN C   4       5.167  12.404  41.622  1.00 33.38    -0.254 OA
BRANCH  68  69
HETATM   69  S2  SGN C   4       4.101  12.707  40.510  1.00 42.75     0.251 S 
HETATM   70  O4S SGN C   4       4.564  12.088  39.275  1.00 44.95    -0.572 OA
HETATM   71  O5S SGN C   4       2.850  12.145  40.997  1.00 42.87    -0.572 OA
HETATM   72  O6S SGN C   4       4.001  14.157  40.395  1.00 40.27    -0.572 OA
ENDBRANCH  68  69
ENDBRANCH  67  68
ENDBRANCH   5  67
BRANCH   4  73
HETATM   73  O4  SGN C   4       4.689   8.764  42.328  1.00 25.89    -0.348 OA
BRANCH  73  74
HETATM   74  C1  BDP C   5       3.278   8.495  42.185  1.00 28.36     0.292 C 
HETATM   75  C2  BDP C   5       2.929   8.321  40.738  1.00 31.13     0.204 C 
HETATM   76  C3  BDP C   5       1.461   8.150  40.564  1.00 33.85     0.183 C 
HETATM   77  C4  BDP C   5       0.923   7.079  41.452  1.00 31.81     0.195 C 
HETATM   78  C5  BDP C   5       1.475   7.237  42.851  1.00 27.14     0.257 C 
HETATM   79  O5  BDP C   5       2.868   7.351  42.850  1.00 24.75    -0.340 OA
BRANCH  75  80
HETATM   80  O2  BDP C   5       3.330   9.425  39.999  1.00 34.37    -0.388 OA
ATOM     81  H2  BDP C   5       3.377  10.199  40.549  1.00  0.00     0.210 HD
ENDBRANCH  75  80
BRANCH  76  82
HETATM   82  O3  BDP C   5       1.229   7.828  39.239  1.00 34.34    -0.390 OA
ATOM     83  H3  BDP C   5       1.308   8.626  38.729  1.00  0.00     0.210 HD
ENDBRANCH  76  82
BRANCH  77  84
HETATM   84  O4  BDP C   5      -0.466   7.188  41.528  1.00 33.34    -0.348 OA
BRANCH  84  85
HETATM   85  C1  NGY C   6      -0.928   8.373  42.219  1.00 35.33     0.286 C 
HETATM   86  C2  NGY C   6      -2.279   8.092  42.788  1.00 39.33     0.170 C 
HETATM   87  C3  NGY C   6      -3.235   7.906  41.663  1.00 39.13     0.177 C 
HETATM   88  C4  NGY C   6      -3.250   9.151  40.847  1.00 37.06     0.180 C 
HETATM   89  C5  NGY C   6      -1.862   9.375  40.343  1.00 32.98     0.181 C 
HETATM   90  O5  NGY C   6      -1.008   9.497  41.420  1.00 32.46    -0.349 OA
BRANCH  86  91
HETATM   91  N2  NGY C   6      -2.229   6.887  43.559  1.00 39.90    -0.349 N 
HETATM   92  C7  NGY C   6      -2.895   6.809  44.821  1.00 44.73     0.214 C 
HETATM   93  O7  NGY C   6      -3.512   7.773  45.252  1.00 46.19    -0.274 OA
HETATM   94  C8  NGY C   6      -2.828   5.541  45.604  1.00 43.79     0.117 C 
ATOM     95  H2  NGY C   6      -1.716   6.080  43.206  1.00  0.00     0.163 HD
ENDBRANCH  86  91
BRANCH  87  96
HETATM   96  O3  NGY C   6      -4.497   7.636  42.147  1.00 44.02    -0.391 OA
ATOM     97  H3  NGY C   6      -5.157   7.997  41.567  1.00  0.00     0.210 HD
ENDBRANCH  87  96
BRANCH  88  98
HETATM   98  O4  NGY C   6      -4.116   8.994  39.788  1.00 37.39    -0.390 OA
ATOM     99  H4  NGY C   6      -3.681   9.250  38.983  1.00  0.00     0.210 HD
ENDBRANCH  88  98
BRANCH  89 100
HETATM  100  C6  NGY C   6      -1.786  10.586  39.466  1.00 31.91     0.227 C 
BRANCH 100 101
HETATM  101  O6  NGY C   6      -0.500  11.086  39.388  1.00 36.15    -0.254 OA
BRANCH 101 102
HETATM  102  S   NGY C   6       0.171  11.198  38.074  1.00 34.85     0.251 S 
HETATM  103  O7A NGY C   6       1.238  10.236  37.970  1.00 33.41    -0.572 OA
HETATM  104  O8  NGY C   6       0.696  12.561  38.016  1.00 30.21    -0.572 OA
HETATM  105  O9  NGY C   6      -0.796  10.960  37.028  1.00 38.01    -0.572 OA
ENDBRANCH 101 102
ENDBRANCH 100 101
ENDBRANCH  89 100
ENDBRANCH  84  85
ENDBRANCH  77  84
BRANCH  78 106
HETATM  106  C6  BDP C   5       1.052   6.135  43.774  1.00 29.31     0.206 C 
HETATM  107  O6A BDP C   5       1.028   4.950  43.358  1.00 32.10    -0.646 OA
HETATM  108  O6B BDP C   5       0.703   6.389  44.956  1.00 26.46    -0.646 OA
ENDBRANCH  78 106
ENDBRANCH  73  74
ENDBRANCH   4  73
TORSDOF 38
ENDMDL
MODEL 11
REMARK VINA RESULT:      -7.9      3.666     16.164
REMARK WARNING: 32 MAX_TORS EXCEEDED!!!
REMARK  38 active torsions:
REMARK  status: ('A' for Active; 'I' for Inactive)
REMARK    1  A    between atoms: C2_2  and  O2_3 
REMARK    2  A    between atoms: C3_5  and  O3_6 
REMARK    3  A    between atoms: C4_8  and  O4_9 
REMARK    4  A    between atoms: O4_9  and  C1_15 
REMARK    5  A    between atoms: C5_10  and  C6_12 
REMARK    6  A    between atoms: S1_17  and  N2_19 
REMARK    7  A    between atoms: C2_18  and  N2_19 
REMARK    8  A    between atoms: S2_22  and  O6_34 
REMARK    9  A    between atoms: C3_23  and  O3_24 
REMARK   10  A    between atoms: C4_27  and  O4_28 
REMARK   11  A    between atoms: O4_28  and  C1_36 
REMARK   12  A    between atoms: C5_30  and  C6_33 
REMARK   13  A    between atoms: C6_33  and  O6_34 
REMARK   14  A    between atoms: C2_38  and  O2_39 
REMARK   15  A    between atoms: O2_39  and  S_52 
REMARK   16  A    between atoms: C3_41  and  O3_42 
REMARK   17  A    between atoms: C4_45  and  O4_46 
REMARK   18  A    between atoms: O4_46  and  C1_53 
REMARK   19  A    between atoms: C5_47  and  C6_49 
REMARK   20  A    between atoms: S1_55  and  N2_57 
REMARK   21  A    between atoms: C2_56  and  N2_57 
REMARK   22  A    between atoms: S2_60  and  O6_72 
REMARK   23  A    between atoms: C3_61  and  O3_62 
REMARK   24  A    between atoms: C4_65  and  O4_66 
REMARK   25  A    between atoms: O4_66  and  C1_74 
REMARK   26  A    between atoms: C5_68  and  C6_71 
REMARK   27  A    between atoms: C6_71  and  O6_72 
REMARK   28  A    between atoms: C2_75  and  O2_76 
REMARK   29  A    between atoms: C3_78  and  O3_79 
REMARK   30  A    between atoms: C4_81  and  O4_82 
REMARK   31  A    between atoms: O4_82  and  C1_88 
REMARK   32  A    between atoms: C5_83  and  C6_85 
REMARK   33  A    between atoms: C2_89  and  N2_90 
REMARK       I    between atoms: N2_90  and  C7_102 
REMARK   34  A    between atoms: C3_92  and  O3_93 
REMARK   35  A    between atoms: C4_95  and  O4_96 
REMARK   36  A    between atoms: C5_98  and  C6_100 
REMARK   37  A    between atoms: C6_100  and  O6_101 
REMARK   38  A    between atoms: O6_101  and  S_108 
ROOT
HETATM    1  C1  SGN C   4       7.357  11.073  44.994  1.00 25.95     0.287 C 
HETATM    2  C2  SGN C   4       6.079  10.470  45.586  1.00 24.33     0.182 C 
HETATM    3  C3  SGN C   4       5.444   9.454  44.641  1.00 24.72     0.178 C 
HETATM    4  C4  SGN C   4       5.224  10.073  43.269  1.00 24.11     0.186 C 
HETATM    5  C5  SGN C   4       6.537  10.712  42.815  1.00 25.01     0.181 C 
HETATM    6  O5  SGN C   4       7.013  11.658  43.754  1.00 24.61    -0.349 OA
ENDROOT
BRANCH   1   7
HETATM    7  O4  IDS C   3       8.417  10.091  44.876  1.00 24.52    -0.348 OA
BRANCH   7   8
HETATM    8  C4  IDS C   3       9.589  10.668  44.378  1.00 32.57     0.195 C 
HETATM    9  C3  IDS C   3       9.923  11.965  45.060  1.00 36.22     0.185 C 
HETATM   10  C2  IDS C   3      10.801  11.838  46.286  1.00 37.49     0.231 C 
HETATM   11  C1  IDS C   3      11.844  10.773  46.137  1.00 32.35     0.294 C 
HETATM   12  O5  IDS C   3      11.241   9.605  45.735  1.00 29.95    -0.340 OA
HETATM   13  C5  IDS C   3      10.753   9.718  44.454  1.00 31.73     0.257 C 
BRANCH   9  14
HETATM   14  O3  IDS C   3      10.586  12.773  44.157  1.00 35.64    -0.390 OA
ATOM     15  H3  IDS C   3      10.402  13.675  44.392  1.00  0.00     0.210 HD
ENDBRANCH   9  14
BRANCH  10  16
HETATM   16  O2  IDS C   3      10.038  11.610  47.419  1.00 41.30    -0.244 OA
BRANCH  16  17
HETATM   17  S   IDS C   3      10.391  12.319  48.663  1.00 46.67     0.252 S 
HETATM   18  O1S IDS C   3       9.226  12.971  49.206  1.00 45.84    -0.572 OA
HETATM   19  O2S IDS C   3      10.902  11.297  49.586  1.00 43.53    -0.572 OA
HETATM   20  O3S IDS C   3      11.413  13.307  48.416  1.00 50.85    -0.572 OA
ENDBRANCH  16  17
ENDBRANCH  10  16
BRANCH  11  21
HETATM   21  O4  SGN C   2      12.912  11.245  45.278  1.00 35.63    -0.348 OA
BRANCH  21  22
HETATM   22  C4  SGN C   2      13.814  12.128  45.932  1.00 34.14     0.186 C 
HETATM   23  C3  SGN C   2      14.459  11.356  47.078  1.00 36.01     0.178 C 
HETATM   24  C2  SGN C   2      15.668  12.064  47.693  1.00 38.29     0.182 C 
HETATM   25  C1  SGN C   2      16.617  12.593  46.617  1.00 40.25     0.287 C 
HETATM   26  O5  SGN C   2      15.889  13.372  45.689  1.00 40.44    -0.349 OA
HETATM   27  C5  SGN C   2      14.907  12.617  44.983  1.00 39.12     0.181 C 
BRANCH  23  28
HETATM   28  O3  SGN C   2      13.505  11.106  48.083  1.00 37.94    -0.391 OA
ATOM     29  H3  SGN C   2      13.864  10.489  48.710  1.00  0.00     0.210 HD
ENDBRANCH  23  28
BRANCH  24  30
HETATM   30  N2  SGN C   2      16.342  11.097  48.540  1.00 38.07    -0.289 N 
ATOM     31  H2  SGN C   2      16.967  10.415  48.109  1.00  0.00     0.175 HD
BRANCH  30  32
HETATM   32  S1  SGN C   2      16.138  11.064  50.125  1.00 51.36     0.205 S 
HETATM   33  O1S SGN C   2      17.174  11.901  50.721  1.00 53.59    -0.578 OA
HETATM   34  O2S SGN C   2      14.811  11.610  50.396  1.00 50.52    -0.578 OA
HETATM   35  O3S SGN C   2      16.266   9.662  50.510  1.00 54.39    -0.578 OA
ENDBRANCH  30  32
ENDBRANCH  24  30
BRANCH  25  36
HETATM   36  O4  BDP C   1      17.300  11.474  46.005  1.00 42.04    -0.348 OA
BRANCH  36  37
HETATM   37  C4  BDP C   1      18.531  11.827  45.474  1.00 48.48     0.195 C 
HETATM   38  C3  BDP C   1      18.326  12.836  44.393  1.00 51.01     0.181 C 
HETATM   39  C2  BDP C   1      19.600  13.508  44.010  1.00 53.01     0.173 C 
HETATM   40  C1  BDP C   1      20.341  13.995  45.206  1.00 54.14     0.203 C 
HETATM   41  O5  BDP C   1      20.553  12.929  46.055  1.00 54.15    -0.370 OA
HETATM   42  C5  BDP C   1      19.380  12.402  46.578  1.00 51.87     0.253 C 
BRANCH  38  43
HETATM   43  O3  BDP C   1      17.819  12.214  43.270  1.00 52.92    -0.390 OA
ATOM     44  H3  BDP C   1      17.878  12.826  42.545  1.00  0.00     0.210 HD
ENDBRANCH  38  43
BRANCH  39  45
HETATM   45  O2  BDP C   1      19.316  14.592  43.202  1.00 53.19    -0.391 OA
ATOM     46  H2  BDP C   1      19.958  15.270  43.375  1.00  0.00     0.210 HD
ENDBRANCH  39  45
BRANCH  42  47
HETATM   47  C6  BDP C   1      19.729  11.383  47.620  1.00 51.57     0.205 C 
HETATM   48  O6A BDP C   1      20.211  10.273  47.274  1.00 52.65    -0.646 OA
HETATM   49  O6B BDP C   1      19.533  11.634  48.839  1.00 51.09    -0.646 OA
ENDBRANCH  42  47
ENDBRANCH  36  37
ENDBRANCH  25  36
BRANCH  27  50
HETATM   50  C6  SGN C   2      14.348  13.450  43.834  1.00 42.92     0.227 C 
BRANCH  50  51
HETATM   51  O6  SGN C   2      15.159  13.310  42.689  1.00 46.75    -0.254 OA
BRANCH  51  52
HETATM   52  S2  SGN C   2      15.729  14.577  41.969  1.00 56.56     0.251 S 
HETATM   53  O4S SGN C   2      16.921  14.154  41.236  1.00 58.52    -0.572 OA
HETATM   54  O5S SGN C   2      14.700  15.094  41.075  1.00 53.95    -0.572 OA
HETATM   55  O6S SGN C   2      16.042  15.553  43.005  1.00 54.13    -0.572 OA
ENDBRANCH  51  52
ENDBRANCH  50  51
ENDBRANCH  27  50
ENDBRANCH  21  22
ENDBRANCH  11  21
BRANCH  13  56
HETATM   56  C6  IDS C   3      10.322   8.359  44.000  1.00 33.29     0.206 C 
HETATM   57  O6A IDS C   3      10.428   7.368  44.769  1.00 34.35    -0.646 OA
HETATM   58  O6B IDS C   3       9.861   8.204  42.838  1.00 34.80    -0.646 OA
ENDBRANCH  13  56
ENDBRANCH   7   8
ENDBRANCH   1   7
BRANCH   2  59
HETATM   59  N2  SGN C   4       6.332   9.848  46.873  1.00 24.47    -0.289 N 
ATOM     60  H2  SGN C   4       7.063   9.146  46.990  1.00  0.00     0.175 HD
BRANCH  59  61
HETATM   61  S1  SGN C   4       5.417  10.308  48.100  1.00 23.01     0.205 S 
HETATM   62  O1S SGN C   4       4.799  11.575  47.756  1.00 23.82    -0.578 OA
HETATM   63  O2S SGN C   4       4.400   9.283  48.307  1.00 21.15    -0.578 OA
HETATM   64  O3S SGN C   4       6.328  10.417  49.237  1.00 24.34    -0.578 OA
ENDBRANCH  59  61
ENDBRANCH   2  59
BRANCH   3  65
HETATM   65  O3  SGN C   4       4.212   9.013  45.179  1.00 24.01    -0.391 OA
ATOM     66  H3  SGN C   4       3.893   9.651  45.806  1.00  0.00     0.210 HD
ENDBRANCH   3  65
BRANCH   5  67
HETATM   67  C6  SGN C   4       6.400  11.415  41.471  1.00 29.42     0.227 C 
BRANCH  67  68
HETATM   68  O6  SGN C   4       6.286  12.809  41.652  1.00 33.38    -0.254 OA
BRANCH  68  69
HETATM   69  S2  SGN C   4       4.884  13.473  41.408  1.00 42.75     0.251 S 
HETATM   70  O4S SGN C   4       4.117  13.348  42.641  1.00 44.95    -0.572 OA
HETATM   71  O5S SGN C   4       5.158  14.855  41.044  1.00 42.87    -0.572 OA
HETATM   72  O6S SGN C   4       4.261  12.764  40.297  1.00 40.27    -0.572 OA
ENDBRANCH  68  69
ENDBRANCH  67  68
ENDBRANCH   5  67
BRANCH   4  73
HETATM   73  O4  SGN C   4       4.856   9.028  42.381  1.00 25.89    -0.348 OA
BRANCH  73  74
HETATM   74  C1  BDP C   5       3.430   8.870  42.219  1.00 28.36     0.292 C 
HETATM   75  C2  BDP C   5       3.077   8.843  40.763  1.00 31.13     0.204 C 
HETATM   76  C3  BDP C   5       1.601   8.789  40.577  1.00 33.85     0.183 C 
HETATM   77  C4  BDP C   5       0.986   7.687  41.373  1.00 31.81     0.195 C 
HETATM   78  C5  BDP C   5       1.542   7.689  42.780  1.00 27.14     0.257 C 
HETATM   79  O5  BDP C   5       2.939   7.706  42.786  1.00 24.75    -0.340 OA
BRANCH  75  80
HETATM   80  O2  BDP C   5       3.555   9.974  40.119  1.00 34.37    -0.388 OA
ATOM     81  H2  BDP C   5       4.019  10.538  40.727  1.00  0.00     0.210 HD
ENDBRANCH  75  80
BRANCH  76  82
HETATM   82  O3  BDP C   5       1.353   8.596  39.231  1.00 34.34    -0.390 OA
ATOM     83  H3  BDP C   5       0.842   7.799  39.141  1.00  0.00     0.210 HD
ENDBRANCH  76  82
BRANCH  77  84
HETATM   84  O4  BDP C   5      -0.392   7.886  41.460  1.00 33.34    -0.348 OA
BRANCH  84  85
HETATM   85  C1  NGY C   6      -1.171   6.994  40.629  1.00 35.33     0.286 C 
HETATM   86  C2  NGY C   6      -2.288   7.772  40.016  1.00 39.33     0.170 C 
HETATM   87  C3  NGY C   6      -3.216   8.196  41.099  1.00 39.13     0.177 C 
HETATM   88  C4  NGY C   6      -3.730   6.978  41.784  1.00 37.06     0.180 C 
HETATM   89  C5  NGY C   6      -2.552   6.245  42.339  1.00 32.98     0.181 C 
HETATM   90  O5  NGY C   6      -1.702   5.912  41.304  1.00 32.46    -0.349 OA
BRANCH  86  91
HETATM   91  N2  NGY C   6      -1.760   8.937  39.374  1.00 39.90    -0.349 N 
HETATM   92  C7  NGY C   6      -2.358   9.436  38.177  1.00 44.73     0.214 C 
HETATM   93  O7  NGY C   6      -3.326   8.869  37.690  1.00 46.19    -0.274 OA
HETATM   94  C8  NGY C   6      -1.788  10.653  37.527  1.00 43.79     0.117 C 
ATOM     95  H2  NGY C   6      -0.952   9.414  39.774  1.00  0.00     0.163 HD
ENDBRANCH  86  91
BRANCH  87  96
HETATM   96  O3  NGY C   6      -4.261   8.927  40.576  1.00 44.02    -0.391 OA
ATOM     97  H3  NGY C   6      -5.074   8.700  41.011  1.00  0.00     0.210 HD
ENDBRANCH  87  96
BRANCH  88  98
HETATM   98  O4  NGY C   6      -4.578   7.349  42.803  1.00 37.39    -0.390 OA
ATOM     99  H4  NGY C   6      -5.357   6.806  42.778  1.00  0.00     0.210 HD
ENDBRANCH  88  98
BRANCH  89 100
HETATM  100  C6  NGY C   6      -2.974   5.022  43.092  1.00 31.91     0.227 C 
BRANCH 100 101
HETATM  101  O6  NGY C   6      -2.801   5.171  44.455  1.00 36.15    -0.254 OA
BRANCH 101 102
HETATM  102  S   NGY C   6      -3.937   4.937  45.375  1.00 34.85     0.251 S 
HETATM  103  O7A NGY C   6      -4.876   6.026  45.300  1.00 33.41    -0.572 OA
HETATM  104  O8  NGY C   6      -3.349   4.851  46.711  1.00 30.21    -0.572 OA
HETATM  105  O9  NGY C   6      -4.595   3.706  45.008  1.00 38.01    -0.572 OA
ENDBRANCH 101 102
ENDBRANCH 100 101
ENDBRANCH  89 100
ENDBRANCH  84  85
ENDBRANCH  77  84
BRANCH  78 106
HETATM  106  C6  BDP C   5       1.040   6.546  43.608  1.00 29.31     0.206 C 
HETATM  107  O6A BDP C   5       0.679   6.748  44.795  1.00 32.10    -0.646 OA
HETATM  108  O6B BDP C   5       0.994   5.382  43.133  1.00 26.46    -0.646 OA
ENDBRANCH  78 106
ENDBRANCH  73  74
ENDBRANCH   4  73
TORSDOF 38
ENDMDL
MODEL 12
REMARK VINA RESULT:      -7.9      3.913     16.259
REMARK WARNING: 32 MAX_TORS EXCEEDED!!!
REMARK  38 active torsions:
REMARK  status: ('A' for Active; 'I' for Inactive)
REMARK    1  A    between atoms: C2_2  and  O2_3 
REMARK    2  A    between atoms: C3_5  and  O3_6 
REMARK    3  A    between atoms: C4_8  and  O4_9 
REMARK    4  A    between atoms: O4_9  and  C1_15 
REMARK    5  A    between atoms: C5_10  and  C6_12 
REMARK    6  A    between atoms: S1_17  and  N2_19 
REMARK    7  A    between atoms: C2_18  and  N2_19 
REMARK    8  A    between atoms: S2_22  and  O6_34 
REMARK    9  A    between atoms: C3_23  and  O3_24 
REMARK   10  A    between atoms: C4_27  and  O4_28 
REMARK   11  A    between atoms: O4_28  and  C1_36 
REMARK   12  A    between atoms: C5_30  and  C6_33 
REMARK   13  A    between atoms: C6_33  and  O6_34 
REMARK   14  A    between atoms: C2_38  and  O2_39 
REMARK   15  A    between atoms: O2_39  and  S_52 
REMARK   16  A    between atoms: C3_41  and  O3_42 
REMARK   17  A    between atoms: C4_45  and  O4_46 
REMARK   18  A    between atoms: O4_46  and  C1_53 
REMARK   19  A    between atoms: C5_47  and  C6_49 
REMARK   20  A    between atoms: S1_55  and  N2_57 
REMARK   21  A    between atoms: C2_56  and  N2_57 
REMARK   22  A    between atoms: S2_60  and  O6_72 
REMARK   23  A    between atoms: C3_61  and  O3_62 
REMARK   24  A    between atoms: C4_65  and  O4_66 
REMARK   25  A    between atoms: O4_66  and  C1_74 
REMARK   26  A    between atoms: C5_68  and  C6_71 
REMARK   27  A    between atoms: C6_71  and  O6_72 
REMARK   28  A    between atoms: C2_75  and  O2_76 
REMARK   29  A    between atoms: C3_78  and  O3_79 
REMARK   30  A    between atoms: C4_81  and  O4_82 
REMARK   31  A    between atoms: O4_82  and  C1_88 
REMARK   32  A    between atoms: C5_83  and  C6_85 
REMARK   33  A    between atoms: C2_89  and  N2_90 
REMARK       I    between atoms: N2_90  and  C7_102 
REMARK   34  A    between atoms: C3_92  and  O3_93 
REMARK   35  A    between atoms: C4_95  and  O4_96 
REMARK   36  A    between atoms: C5_98  and  C6_100 
REMARK   37  A    between atoms: C6_100  and  O6_101 
REMARK   38  A    between atoms: O6_101  and  S_108 
ROOT
HETATM    1  C1  SGN C   4       7.225  11.121  44.742  1.00 25.95     0.287 C 
HETATM    2  C2  SGN C   4       5.991  10.474  45.379  1.00 24.33     0.182 C 
HETATM    3  C3  SGN C   4       5.363   9.431  44.460  1.00 24.72     0.178 C 
HETATM    4  C4  SGN C   4       5.075  10.033  43.094  1.00 24.11     0.186 C 
HETATM    5  C5  SGN C   4       6.348  10.718  42.593  1.00 25.01     0.181 C 
HETATM    6  O5  SGN C   4       6.819  11.687  43.511  1.00 24.61    -0.349 OA
ENDROOT
BRANCH   1   7
HETATM    7  O4  IDS C   3       8.317  10.178  44.592  1.00 24.52    -0.348 OA
BRANCH   7   8
HETATM    8  C4  IDS C   3       9.481  10.817  44.155  1.00 32.57     0.195 C 
HETATM    9  C3  IDS C   3       9.733  12.108  44.883  1.00 36.22     0.185 C 
HETATM   10  C2  IDS C   3      10.568  11.985  46.139  1.00 37.49     0.231 C 
HETATM   11  C1  IDS C   3      11.661  10.969  46.004  1.00 32.35     0.294 C 
HETATM   12  O5  IDS C   3      11.124   9.788  45.550  1.00 29.95    -0.340 OA
HETATM   13  C5  IDS C   3      10.681   9.914  44.253  1.00 31.73     0.257 C 
BRANCH   9  14
HETATM   14  O3  IDS C   3      10.395  12.967  44.027  1.00 35.64    -0.390 OA
ATOM     15  H3  IDS C   3      11.327  12.835  44.155  1.00  0.00     0.210 HD
ENDBRANCH   9  14
BRANCH  10  16
HETATM   16  O2  IDS C   3       9.773  11.696  47.234  1.00 41.30    -0.244 OA
BRANCH  16  17
HETATM   17  S   IDS C   3      10.098  12.322  48.529  1.00 46.67     0.252 S 
HETATM   18  O1S IDS C   3       8.914  12.911  49.103  1.00 45.84    -0.572 OA
HETATM   19  O2S IDS C   3      10.622  11.249  49.384  1.00 43.53    -0.572 OA
HETATM   20  O3S IDS C   3      11.100  13.346  48.363  1.00 50.85    -0.572 OA
ENDBRANCH  16  17
ENDBRANCH  10  16
BRANCH  11  21
HETATM   21  O4  SGN C   2      12.740  11.507  45.200  1.00 35.63    -0.348 OA
BRANCH  21  22
HETATM   22  C4  SGN C   2      13.648  12.312  45.941  1.00 34.14     0.186 C 
HETATM   23  C3  SGN C   2      14.186  11.458  47.085  1.00 36.01     0.178 C 
HETATM   24  C2  SGN C   2      15.394  12.073  47.795  1.00 38.29     0.182 C 
HETATM   25  C1  SGN C   2      16.429  12.592  46.797  1.00 40.25     0.287 C 
HETATM   26  O5  SGN C   2      15.797  13.447  45.866  1.00 40.44    -0.349 OA
HETATM   27  C5  SGN C   2      14.818  12.778  45.075  1.00 39.12     0.181 C 
BRANCH  23  28
HETATM   28  O3  SGN C   2      13.164  11.220  48.024  1.00 37.94    -0.391 OA
ATOM     29  H3  SGN C   2      12.387  10.912  47.572  1.00  0.00     0.210 HD
ENDBRANCH  23  28
BRANCH  24  30
HETATM   30  N2  SGN C   2      15.966  11.036  48.634  1.00 38.07    -0.289 N 
ATOM     31  H2  SGN C   2      16.441  10.249  48.190  1.00  0.00     0.175 HD
BRANCH  30  32
HETATM   32  S1  SGN C   2      15.880  11.086  50.230  1.00 51.36     0.205 S 
HETATM   33  O1S SGN C   2      16.219   9.758  50.732  1.00 53.59    -0.578 OA
HETATM   34  O2S SGN C   2      16.854  12.075  50.679  1.00 50.52    -0.578 OA
HETATM   35  O3S SGN C   2      14.504  11.462  50.538  1.00 54.39    -0.578 OA
ENDBRANCH  30  32
ENDBRANCH  24  30
BRANCH  25  36
HETATM   36  O4  BDP C   1      17.085  11.464  46.174  1.00 42.04    -0.348 OA
BRANCH  36  37
HETATM   37  C4  BDP C   1      18.467  11.574  46.191  1.00 48.48     0.195 C 
HETATM   38  C3  BDP C   1      19.012  10.727  47.292  1.00 51.01     0.181 C 
HETATM   39  C2  BDP C   1      20.483  10.526  47.166  1.00 53.01     0.173 C 
HETATM   40  C1  BDP C   1      20.858  10.101  45.789  1.00 54.14     0.203 C 
HETATM   41  O5  BDP C   1      20.385  11.039  44.895  1.00 54.15    -0.370 OA
HETATM   42  C5  BDP C   1      18.999  11.111  44.859  1.00 51.87     0.253 C 
BRANCH  38  43
HETATM   43  O3  BDP C   1      18.770  11.337  48.508  1.00 52.92    -0.390 OA
ATOM     44  H3  BDP C   1      17.835  11.492  48.575  1.00  0.00     0.210 HD
ENDBRANCH  38  43
BRANCH  39  45
HETATM   45  O2  BDP C   1      20.885   9.544  48.049  1.00 53.19    -0.391 OA
ATOM     46  H2  BDP C   1      21.366   8.884  47.565  1.00  0.00     0.210 HD
ENDBRANCH  39  45
BRANCH  42  47
HETATM   47  C6  BDP C   1      18.590  12.016  43.736  1.00 51.57     0.205 C 
HETATM   48  O6A BDP C   1      18.479  13.253  43.937  1.00 52.65    -0.646 OA
HETATM   49  O6B BDP C   1      18.352  11.538  42.594  1.00 51.09    -0.646 OA
ENDBRANCH  42  47
ENDBRANCH  36  37
ENDBRANCH  25  36
BRANCH  27  50
HETATM   50  C6  SGN C   2      14.370  13.687  43.935  1.00 42.92     0.227 C 
BRANCH  50  51
HETATM   51  O6  SGN C   2      15.454  14.461  43.471  1.00 46.75    -0.254 OA
BRANCH  51  52
HETATM   52  S2  SGN C   2      15.582  14.803  41.950  1.00 56.56     0.251 S 
HETATM   53  O4S SGN C   2      14.258  14.622  41.358  1.00 58.52    -0.572 OA
HETATM   54  O5S SGN C   2      16.043  16.181  41.831  1.00 53.95    -0.572 OA
HETATM   55  O6S SGN C   2      16.563  13.886  41.386  1.00 54.13    -0.572 OA
ENDBRANCH  51  52
ENDBRANCH  50  51
ENDBRANCH  27  50
ENDBRANCH  21  22
ENDBRANCH  11  21
BRANCH  13  56
HETATM   56  C6  IDS C   3      10.326   8.551  43.749  1.00 33.29     0.206 C 
HETATM   57  O6A IDS C   3      10.221   7.584  44.548  1.00 34.35    -0.646 OA
HETATM   58  O6B IDS C   3      10.142   8.368  42.516  1.00 34.80    -0.646 OA
ENDBRANCH  13  56
ENDBRANCH   7   8
ENDBRANCH   1   7
BRANCH   2  59
HETATM   59  N2  SGN C   4       6.310   9.869  46.659  1.00 24.47    -0.289 N 
ATOM     60  H2  SGN C   4       7.055   9.177  46.750  1.00  0.00     0.175 HD
BRANCH  59  61
HETATM   61  S1  SGN C   4       5.445  10.329  47.921  1.00 23.01     0.205 S 
HETATM   62  O1S SGN C   4       4.428   9.324  48.168  1.00 23.82    -0.578 OA
HETATM   63  O2S SGN C   4       6.346  10.436  49.065  1.00 21.15    -0.578 OA
HETATM   64  O3S SGN C   4       4.878  11.622  47.546  1.00 24.34    -0.578 OA
ENDBRANCH  59  61
ENDBRANCH   2  59
BRANCH   3  65
HETATM   65  O3  SGN C   4       4.167   8.947  45.040  1.00 24.01    -0.391 OA
ATOM     66  H3  SGN C   4       4.220   9.023  45.986  1.00  0.00     0.210 HD
ENDBRANCH   3  65
BRANCH   5  67
HETATM   67  C6  SGN C   4       6.139  11.409  41.251  1.00 29.42     0.227 C 
BRANCH  67  68
HETATM   68  O6  SGN C   4       5.649  12.717  41.440  1.00 33.38    -0.254 OA
BRANCH  68  69
HETATM   69  S2  SGN C   4       4.332  13.127  40.690  1.00 42.75     0.251 S 
HETATM   70  O4S SGN C   4       3.208  12.595  41.449  1.00 44.95    -0.572 OA
HETATM   71  O5S SGN C   4       4.345  14.582  40.633  1.00 42.87    -0.572 OA
HETATM   72  O6S SGN C   4       4.408  12.561  39.349  1.00 40.27    -0.572 OA
ENDBRANCH  68  69
ENDBRANCH  67  68
ENDBRANCH   5  67
BRANCH   4  73
HETATM   73  O4  SGN C   4       4.717   8.970  42.223  1.00 25.89    -0.348 OA
BRANCH  73  74
HETATM   74  C1  BDP C   5       3.294   8.751  42.118  1.00 28.36     0.292 C 
HETATM   75  C2  BDP C   5       2.880   8.726  40.678  1.00 31.13     0.204 C 
HETATM   76  C3  BDP C   5       1.401   8.607  40.555  1.00 33.85     0.183 C 
HETATM   77  C4  BDP C   5       0.870   7.470  41.361  1.00 31.81     0.195 C 
HETATM   78  C5  BDP C   5       1.486   7.480  42.742  1.00 27.14     0.257 C 
HETATM   79  O5  BDP C   5       2.880   7.559  42.690  1.00 24.75    -0.340 OA
BRANCH  75  80
HETATM   80  O2  BDP C   5       3.279   9.885  40.031  1.00 34.37    -0.388 OA
ATOM     81  H2  BDP C   5       2.906   9.930  39.158  1.00  0.00     0.210 HD
ENDBRANCH  75  80
BRANCH  76  82
HETATM   82  O3  BDP C   5       1.104   8.420  39.217  1.00 34.34    -0.390 OA
ATOM     83  H3  BDP C   5       1.802   8.816  38.707  1.00  0.00     0.210 HD
ENDBRANCH  76  82
BRANCH  77  84
HETATM   84  O4  BDP C   5      -0.510   7.605  41.509  1.00 33.34    -0.348 OA
BRANCH  84  85
HETATM   85  C1  NGY C   6      -1.273   7.154  40.365  1.00 35.33     0.286 C 
HETATM   86  C2  NGY C   6      -2.576   7.883  40.349  1.00 39.33     0.170 C 
HETATM   87  C3  NGY C   6      -3.370   7.455  41.533  1.00 39.13     0.177 C 
HETATM   88  C4  NGY C   6      -3.582   5.984  41.453  1.00 37.06     0.180 C 
HETATM   89  C5  NGY C   6      -2.236   5.336  41.443  1.00 32.98     0.181 C 
HETATM   90  O5  NGY C   6      -1.525   5.795  40.354  1.00 32.46    -0.349 OA
BRANCH  86  91
HETATM   91  N2  NGY C   6      -2.335   9.291  40.434  1.00 39.90    -0.349 N 
HETATM   92  C7  NGY C   6      -1.888  10.018  39.289  1.00 44.73     0.214 C 
HETATM   93  O7  NGY C   6      -1.706   9.442  38.226  1.00 46.19    -0.274 OA
HETATM   94  C8  NGY C   6      -1.644  11.486  39.406  1.00 43.79     0.117 C 
ATOM     95  H2  NGY C   6      -2.485   9.778  41.318  1.00  0.00     0.163 HD
ENDBRANCH  86  91
BRANCH  87  96
HETATM   96  O3  NGY C   6      -4.581   8.113  41.560  1.00 44.02    -0.391 OA
ATOM     97  H3  NGY C   6      -4.465   9.028  41.334  1.00  0.00     0.210 HD
ENDBRANCH  87  96
BRANCH  88  98
HETATM   98  O4  NGY C   6      -4.300   5.565  42.550  1.00 37.39    -0.390 OA
ATOM     99  H4  NGY C   6      -3.768   5.661  43.331  1.00  0.00     0.210 HD
ENDBRANCH  88  98
BRANCH  89 100
HETATM  100  C6  NGY C   6      -2.348   3.844  41.413  1.00 31.91     0.227 C 
BRANCH 100 101
HETATM  101  O6  NGY C   6      -3.418   3.422  40.646  1.00 36.15    -0.254 OA
BRANCH 101 102
HETATM  102  S   NGY C   6      -4.227   2.262  41.083  1.00 34.85     0.251 S 
HETATM  103  O7A NGY C   6      -3.388   1.109  41.282  1.00 33.41    -0.572 OA
HETATM  104  O8  NGY C   6      -5.186   2.025  40.004  1.00 30.21    -0.572 OA
HETATM  105  O9  NGY C   6      -4.896   2.592  42.319  1.00 38.01    -0.572 OA
ENDBRANCH 101 102
ENDBRANCH 100 101
ENDBRANCH  89 100
ENDBRANCH  84  85
ENDBRANCH  77  84
BRANCH  78 106
HETATM  106  C6  BDP C   5       1.071   6.304  43.575  1.00 29.31     0.206 C 
HETATM  107  O6A BDP C   5       0.782   6.472  44.786  1.00 32.10    -0.646 OA
HETATM  108  O6B BDP C   5       1.028   5.150  43.077  1.00 26.46    -0.646 OA
ENDBRANCH  78 106
ENDBRANCH  73  74
ENDBRANCH   4  73
TORSDOF 38
ENDMDL
MODEL 13
REMARK VINA RESULT:      -7.9      2.690     15.022
REMARK WARNING: 32 MAX_TORS EXCEEDED!!!
REMARK  38 active torsions:
REMARK  status: ('A' for Active; 'I' for Inactive)
REMARK    1  A    between atoms: C2_2  and  O2_3 
REMARK    2  A    between atoms: C3_5  and  O3_6 
REMARK    3  A    between atoms: C4_8  and  O4_9 
REMARK    4  A    between atoms: O4_9  and  C1_15 
REMARK    5  A    between atoms: C5_10  and  C6_12 
REMARK    6  A    between atoms: S1_17  and  N2_19 
REMARK    7  A    between atoms: C2_18  and  N2_19 
REMARK    8  A    between atoms: S2_22  and  O6_34 
REMARK    9  A    between atoms: C3_23  and  O3_24 
REMARK   10  A    between atoms: C4_27  and  O4_28 
REMARK   11  A    between atoms: O4_28  and  C1_36 
REMARK   12  A    between atoms: C5_30  and  C6_33 
REMARK   13  A    between atoms: C6_33  and  O6_34 
REMARK   14  A    between atoms: C2_38  and  O2_39 
REMARK   15  A    between atoms: O2_39  and  S_52 
REMARK   16  A    between atoms: C3_41  and  O3_42 
REMARK   17  A    between atoms: C4_45  and  O4_46 
REMARK   18  A    between atoms: O4_46  and  C1_53 
REMARK   19  A    between atoms: C5_47  and  C6_49 
REMARK   20  A    between atoms: S1_55  and  N2_57 
REMARK   21  A    between atoms: C2_56  and  N2_57 
REMARK   22  A    between atoms: S2_60  and  O6_72 
REMARK   23  A    between atoms: C3_61  and  O3_62 
REMARK   24  A    between atoms: C4_65  and  O4_66 
REMARK   25  A    between atoms: O4_66  and  C1_74 
REMARK   26  A    between atoms: C5_68  and  C6_71 
REMARK   27  A    between atoms: C6_71  and  O6_72 
REMARK   28  A    between atoms: C2_75  and  O2_76 
REMARK   29  A    between atoms: C3_78  and  O3_79 
REMARK   30  A    between atoms: C4_81  and  O4_82 
REMARK   31  A    between atoms: O4_82  and  C1_88 
REMARK   32  A    between atoms: C5_83  and  C6_85 
REMARK   33  A    between atoms: C2_89  and  N2_90 
REMARK       I    between atoms: N2_90  and  C7_102 
REMARK   34  A    between atoms: C3_92  and  O3_93 
REMARK   35  A    between atoms: C4_95  and  O4_96 
REMARK   36  A    between atoms: C5_98  and  C6_100 
REMARK   37  A    between atoms: C6_100  and  O6_101 
REMARK   38  A    between atoms: O6_101  and  S_108 
ROOT
HETATM    1  C1  SGN C   4      13.027   9.890  47.302  1.00 25.95     0.287 C 
HETATM    2  C2  SGN C   4      12.606   8.973  46.150  1.00 24.33     0.182 C 
HETATM    3  C3  SGN C   4      11.956   9.756  45.013  1.00 24.72     0.178 C 
HETATM    4  C4  SGN C   4      10.809  10.603  45.542  1.00 24.11     0.186 C 
HETATM    5  C5  SGN C   4      11.321  11.413  46.734  1.00 25.01     0.181 C 
HETATM    6  O5  SGN C   4      11.872  10.580  47.737  1.00 24.61    -0.349 OA
ENDROOT
BRANCH   1   7
HETATM    7  O4  IDS C   3      14.103  10.784  46.920  1.00 24.52    -0.348 OA
BRANCH   7   8
HETATM    8  C4  IDS C   3      15.063  10.883  47.930  1.00 32.57     0.195 C 
HETATM    9  C3  IDS C   3      16.210   9.933  47.724  1.00 36.22     0.185 C 
HETATM   10  C2  IDS C   3      17.363  10.486  46.915  1.00 37.49     0.231 C 
HETATM   11  C1  IDS C   3      17.624  11.933  47.202  1.00 32.35     0.294 C 
HETATM   12  O5  IDS C   3      16.447  12.634  47.083  1.00 29.95    -0.340 OA
HETATM   13  C5  IDS C   3      15.567  12.292  48.083  1.00 31.73     0.257 C 
BRANCH   9  14
HETATM   14  O3  IDS C   3      16.706   9.575  48.962  1.00 35.64    -0.390 OA
ATOM     15  H3  IDS C   3      17.335   8.877  48.827  1.00  0.00     0.210 HD
ENDBRANCH   9  14
BRANCH  10  16
HETATM   16  O2  IDS C   3      17.154  10.292  45.560  1.00 41.30    -0.244 OA
BRANCH  16  17
HETATM   17  S   IDS C   3      18.316  10.005  44.699  1.00 46.67     0.252 S 
HETATM   18  O1S IDS C   3      19.050  11.218  44.441  1.00 45.84    -0.572 OA
HETATM   19  O2S IDS C   3      19.140   9.035  45.431  1.00 43.53    -0.572 OA
HETATM   20  O3S IDS C   3      17.893   9.435  43.443  1.00 50.85    -0.572 OA
ENDBRANCH  16  17
ENDBRANCH  10  16
BRANCH  11  21
HETATM   21  O4  SGN C   2      18.300  12.070  48.476  1.00 35.63    -0.348 OA
BRANCH  21  22
HETATM   22  C4  SGN C   2      19.685  12.366  48.351  1.00 34.14     0.186 C 
HETATM   23  C3  SGN C   2      20.292  11.323  47.418  1.00 36.01     0.178 C 
HETATM   24  C2  SGN C   2      21.704  11.671  46.942  1.00 38.29     0.182 C 
HETATM   25  C1  SGN C   2      21.799  13.126  46.480  1.00 40.25     0.287 C 
HETATM   26  O5  SGN C   2      21.293  13.974  47.491  1.00 40.44    -0.349 OA
HETATM   27  C5  SGN C   2      19.911  13.756  47.757  1.00 39.12     0.181 C 
BRANCH  23  28
HETATM   28  O3  SGN C   2      20.311  10.067  48.054  1.00 37.94    -0.391 OA
ATOM     29  H3  SGN C   2      21.033  10.039  48.671  1.00  0.00     0.210 HD
ENDBRANCH  23  28
BRANCH  24  30
HETATM   30  N2  SGN C   2      22.020  10.766  45.852  1.00 38.07    -0.289 N 
ATOM     31  H2  SGN C   2      21.503  10.850  44.976  1.00  0.00     0.175 HD
BRANCH  30  32
HETATM   32  S1  SGN C   2      23.151   9.643  45.978  1.00 51.36     0.205 S 
HETATM   33  O1S SGN C   2      24.270  10.223  46.713  1.00 53.59    -0.578 OA
HETATM   34  O2S SGN C   2      22.566   8.529  46.718  1.00 50.52    -0.578 OA
HETATM   35  O3S SGN C   2      23.510   9.290  44.608  1.00 54.39    -0.578 OA
ENDBRANCH  30  32
ENDBRANCH  24  30
BRANCH  25  36
HETATM   36  O4  BDP C   1      21.097  13.264  45.223  1.00 42.04    -0.348 OA
BRANCH  36  37
HETATM   37  C4  BDP C   1      21.652  14.237  44.406  1.00 48.48     0.195 C 
HETATM   38  C3  BDP C   1      21.233  15.584  44.897  1.00 51.01     0.181 C 
HETATM   39  C2  BDP C   1      22.047  16.675  44.292  1.00 53.01     0.173 C 
HETATM   40  C1  BDP C   1      23.504  16.386  44.389  1.00 54.14     0.203 C 
HETATM   41  O5  BDP C   1      23.751  15.167  43.794  1.00 54.15    -0.370 OA
HETATM   42  C5  BDP C   1      23.152  14.103  44.456  1.00 51.87     0.253 C 
BRANCH  38  43
HETATM   43  O3  BDP C   1      19.911  15.805  44.564  1.00 52.92    -0.390 OA
ATOM     44  H3  BDP C   1      19.371  15.451  45.262  1.00  0.00     0.210 HD
ENDBRANCH  38  43
BRANCH  39  45
HETATM   45  O2  BDP C   1      21.791  17.856  44.961  1.00 53.19    -0.391 OA
ATOM     46  H2  BDP C   1      20.856  18.017  44.938  1.00  0.00     0.210 HD
ENDBRANCH  39  45
BRANCH  42  47
HETATM   47  C6  BDP C   1      23.631  12.821  43.844  1.00 51.57     0.205 C 
HETATM   48  O6A BDP C   1      22.883  12.185  43.057  1.00 52.65    -0.646 OA
HETATM   49  O6B BDP C   1      24.778  12.378  44.123  1.00 51.09    -0.646 OA
ENDBRANCH  42  47
ENDBRANCH  36  37
ENDBRANCH  25  36
BRANCH  27  50
HETATM   50  C6  SGN C   2      19.379  14.865  48.660  1.00 42.92     0.227 C 
BRANCH  50  51
HETATM   51  O6  SGN C   2      19.909  14.733  49.960  1.00 46.75    -0.254 OA
BRANCH  51  52
HETATM   52  S2  SGN C   2      20.640  15.940  50.638  1.00 56.56     0.251 S 
HETATM   53  O4S SGN C   2      19.673  16.580  51.528  1.00 58.52    -0.572 OA
HETATM   54  O5S SGN C   2      21.789  15.422  51.370  1.00 53.95    -0.572 OA
HETATM   55  O6S SGN C   2      21.073  16.831  49.571  1.00 54.13    -0.572 OA
ENDBRANCH  51  52
ENDBRANCH  50  51
ENDBRANCH  27  50
ENDBRANCH  21  22
ENDBRANCH  11  21
BRANCH  13  56
HETATM   56  C6  IDS C   3      14.415  13.246  48.033  1.00 33.29     0.206 C 
HETATM   57  O6A IDS C   3      14.296  14.050  47.073  1.00 34.35    -0.646 OA
HETATM   58  O6B IDS C   3      13.566  13.251  48.964  1.00 34.80    -0.646 OA
ENDBRANCH  13  56
ENDBRANCH   7   8
ENDBRANCH   1   7
BRANCH   2  59
HETATM   59  N2  SGN C   4      13.731   8.212  45.638  1.00 24.47    -0.289 N 
ATOM     60  H2  SGN C   4      14.358   8.599  44.932  1.00  0.00     0.175 HD
BRANCH  59  61
HETATM   61  S1  SGN C   4      13.948   6.742  46.226  1.00 23.01     0.205 S 
HETATM   62  O1S SGN C   4      12.713   5.998  46.060  1.00 23.82    -0.578 OA
HETATM   63  O2S SGN C   4      15.028   6.114  45.471  1.00 21.15    -0.578 OA
HETATM   64  O3S SGN C   4      14.301   6.939  47.630  1.00 24.34    -0.578 OA
ENDBRANCH  59  61
ENDBRANCH   2  59
BRANCH   3  65
HETATM   65  O3  SGN C   4      11.483   8.856  44.029  1.00 24.01    -0.391 OA
ATOM     66  H3  SGN C   4      11.572   7.965  44.344  1.00  0.00     0.210 HD
ENDBRANCH   3  65
BRANCH   5  67
HETATM   67  C6  SGN C   4      10.222  12.252  47.373  1.00 29.42     0.227 C 
BRANCH  67  68
HETATM   68  O6  SGN C   4       9.119  11.443  47.716  1.00 33.38    -0.254 OA
BRANCH  68  69
HETATM   69  S2  SGN C   4       8.544  11.557  49.172  1.00 42.75     0.251 S 
HETATM   70  O4S SGN C   4       7.176  11.057  49.146  1.00 44.95    -0.572 OA
HETATM   71  O5S SGN C   4       9.427  10.759  50.011  1.00 42.87    -0.572 OA
HETATM   72  O6S SGN C   4       8.610  12.963  49.551  1.00 40.27    -0.572 OA
ENDBRANCH  68  69
ENDBRANCH  67  68
ENDBRANCH   5  67
BRANCH   4  73
HETATM   73  O4  SGN C   4      10.402  11.475  44.497  1.00 25.89    -0.348 OA
BRANCH  73  74
HETATM   74  C1  BDP C   5       9.009  11.353  44.140  1.00 28.36     0.292 C 
HETATM   75  C2  BDP C   5       8.796  11.809  42.728  1.00 31.13     0.204 C 
HETATM   76  C3  BDP C   5       7.349  11.792  42.379  1.00 33.85     0.183 C 
HETATM   77  C4  BDP C   5       6.723  10.475  42.694  1.00 31.81     0.195 C 
HETATM   78  C5  BDP C   5       7.143  10.016  44.073  1.00 27.14     0.257 C 
HETATM   79  O5  BDP C   5       8.530  10.056  44.233  1.00 24.75    -0.340 OA
BRANCH  75  80
HETATM   80  O2  BDP C   5       9.271  13.100  42.551  1.00 34.37    -0.388 OA
ATOM     81  H2  BDP C   5       8.725  13.726  43.011  1.00  0.00     0.210 HD
ENDBRANCH  75  80
BRANCH  76  82
HETATM   82  O3  BDP C   5       7.240  12.057  41.026  1.00 34.34    -0.390 OA
ATOM     83  H3  BDP C   5       8.097  12.324  40.713  1.00  0.00     0.210 HD
ENDBRANCH  76  82
BRANCH  77  84
HETATM   84  O4  BDP C   5       5.334  10.606  42.695  1.00 33.34    -0.348 OA
BRANCH  84  85
HETATM   85  C1  NGY C   6       4.676   9.921  41.604  1.00 35.33     0.286 C 
HETATM   86  C2  NGY C   6       3.492  10.727  41.183  1.00 39.33     0.170 C 
HETATM   87  C3  NGY C   6       2.500  10.721  42.294  1.00 39.13     0.177 C 
HETATM   88  C4  NGY C   6       2.113   9.312  42.573  1.00 37.06     0.180 C 
HETATM   89  C5  NGY C   6       3.353   8.571  42.954  1.00 32.98     0.181 C 
HETATM   90  O5  NGY C   6       4.255   8.641  41.912  1.00 32.46    -0.349 OA
BRANCH  86  91
HETATM   91  N2  NGY C   6       3.899  12.075  40.931  1.00 39.90    -0.349 N 
HETATM   92  C7  NGY C   6       3.363  12.796  39.820  1.00 44.73     0.214 C 
HETATM   93  O7  NGY C   6       2.551  12.264  39.075  1.00 46.19    -0.274 OA
HETATM   94  C8  NGY C   6       3.804  14.201  39.579  1.00 43.79     0.117 C 
ATOM     95  H2  NGY C   6       4.576  12.524  41.547  1.00  0.00     0.163 HD
ENDBRANCH  86  91
BRANCH  87  96
HETATM   96  O3  NGY C   6       1.392  11.464  41.949  1.00 44.02    -0.391 OA
ATOM     97  H3  NGY C   6       0.632  10.901  41.862  1.00  0.00     0.210 HD
ENDBRANCH  87  96
BRANCH  88  98
HETATM   98  O4  NGY C   6       1.209   9.283  43.611  1.00 37.39    -0.390 OA
ATOM     99  H4  NGY C   6       0.364   8.994  43.286  1.00  0.00     0.210 HD
ENDBRANCH  88  98
BRANCH  89 100
HETATM  100  C6  NGY C   6       3.055   7.146  43.302  1.00 31.91     0.227 C 
BRANCH 100 101
HETATM  101  O6  NGY C   6       2.008   6.641  42.555  1.00 36.15    -0.254 OA
BRANCH 101 102
HETATM  102  S   NGY C   6       0.840   6.036  43.234  1.00 34.85     0.251 S 
HETATM  103  O7A NGY C   6      -0.379   6.662  42.792  1.00 33.41    -0.572 OA
HETATM  104  O8  NGY C   6       1.053   6.269  44.662  1.00 30.21    -0.572 OA
HETATM  105  O9  NGY C   6       0.796   4.625  42.930  1.00 38.01    -0.572 OA
ENDBRANCH 101 102
ENDBRANCH 100 101
ENDBRANCH  89 100
ENDBRANCH  84  85
ENDBRANCH  77  84
BRANCH  78 106
HETATM  106  C6  BDP C   5       6.628   8.651  44.416  1.00 29.31     0.206 C 
HETATM  107  O6A BDP C   5       6.932   7.670  43.692  1.00 32.10    -0.646 OA
HETATM  108  O6B BDP C   5       5.878   8.482  45.413  1.00 26.46    -0.646 OA
ENDBRANCH  78 106
ENDBRANCH  73  74
ENDBRANCH   4  73
TORSDOF 38
ENDMDL
MODEL 14
REMARK VINA RESULT:      -7.8      3.156     13.402
REMARK WARNING: 32 MAX_TORS EXCEEDED!!!
REMARK  38 active torsions:
REMARK  status: ('A' for Active; 'I' for Inactive)
REMARK    1  A    between atoms: C2_2  and  O2_3 
REMARK    2  A    between atoms: C3_5  and  O3_6 
REMARK    3  A    between atoms: C4_8  and  O4_9 
REMARK    4  A    between atoms: O4_9  and  C1_15 
REMARK    5  A    between atoms: C5_10  and  C6_12 
REMARK    6  A    between atoms: S1_17  and  N2_19 
REMARK    7  A    between atoms: C2_18  and  N2_19 
REMARK    8  A    between atoms: S2_22  and  O6_34 
REMARK    9  A    between atoms: C3_23  and  O3_24 
REMARK   10  A    between atoms: C4_27  and  O4_28 
REMARK   11  A    between atoms: O4_28  and  C1_36 
REMARK   12  A    between atoms: C5_30  and  C6_33 
REMARK   13  A    between atoms: C6_33  and  O6_34 
REMARK   14  A    between atoms: C2_38  and  O2_39 
REMARK   15  A    between atoms: O2_39  and  S_52 
REMARK   16  A    between atoms: C3_41  and  O3_42 
REMARK   17  A    between atoms: C4_45  and  O4_46 
REMARK   18  A    between atoms: O4_46  and  C1_53 
REMARK   19  A    between atoms: C5_47  and  C6_49 
REMARK   20  A    between atoms: S1_55  and  N2_57 
REMARK   21  A    between atoms: C2_56  and  N2_57 
REMARK   22  A    between atoms: S2_60  and  O6_72 
REMARK   23  A    between atoms: C3_61  and  O3_62 
REMARK   24  A    between atoms: C4_65  and  O4_66 
REMARK   25  A    between atoms: O4_66  and  C1_74 
REMARK   26  A    between atoms: C5_68  and  C6_71 
REMARK   27  A    between atoms: C6_71  and  O6_72 
REMARK   28  A    between atoms: C2_75  and  O2_76 
REMARK   29  A    between atoms: C3_78  and  O3_79 
REMARK   30  A    between atoms: C4_81  and  O4_82 
REMARK   31  A    between atoms: O4_82  and  C1_88 
REMARK   32  A    between atoms: C5_83  and  C6_85 
REMARK   33  A    between atoms: C2_89  and  N2_90 
REMARK       I    between atoms: N2_90  and  C7_102 
REMARK   34  A    between atoms: C3_92  and  O3_93 
REMARK   35  A    between atoms: C4_95  and  O4_96 
REMARK   36  A    between atoms: C5_98  and  C6_100 
REMARK   37  A    between atoms: C6_100  and  O6_101 
REMARK   38  A    between atoms: O6_101  and  S_108 
ROOT
HETATM    1  C1  SGN C   4       7.040  12.610  42.523  1.00 25.95     0.287 C 
HETATM    2  C2  SGN C   4       6.081  13.805  42.513  1.00 24.33     0.182 C 
HETATM    3  C3  SGN C   4       4.891  13.582  43.441  1.00 24.72     0.178 C 
HETATM    4  C4  SGN C   4       4.200  12.268  43.109  1.00 24.11     0.186 C 
HETATM    5  C5  SGN C   4       5.260  11.166  43.068  1.00 25.01     0.181 C 
HETATM    6  O5  SGN C   4       6.295  11.467  42.151  1.00 24.61    -0.349 OA
ENDROOT
BRANCH   1   7
HETATM    7  O4  IDS C   3       7.702  12.455  43.804  1.00 24.52    -0.348 OA
BRANCH   7   8
HETATM    8  C4  IDS C   3       9.077  12.270  43.644  1.00 32.57     0.195 C 
HETATM    9  C3  IDS C   3       9.861  13.521  43.928  1.00 36.22     0.185 C 
HETATM   10  C2  IDS C   3      10.301  13.691  45.366  1.00 37.49     0.231 C 
HETATM   11  C1  IDS C   3      10.696  12.394  46.002  1.00 32.35     0.294 C 
HETATM   12  O5  IDS C   3       9.691  11.475  45.811  1.00 29.95    -0.340 OA
HETATM   13  C5  IDS C   3       9.586  11.129  44.483  1.00 31.73     0.257 C 
BRANCH   9  14
HETATM   14  O3  IDS C   3      10.998  13.509  43.144  1.00 35.64    -0.390 OA
ATOM     15  H3  IDS C   3      11.674  13.051  43.629  1.00  0.00     0.210 HD
ENDBRANCH   9  14
BRANCH  10  16
HETATM   16  O2  IDS C   3       9.317  14.316  46.113  1.00 41.30    -0.244 OA
BRANCH  16  17
HETATM   17  S   IDS C   3       9.305  15.789  46.175  1.00 46.67     0.252 S 
HETATM   18  O1S IDS C   3      10.613  16.307  45.864  1.00 45.84    -0.572 OA
HETATM   19  O2S IDS C   3       8.312  16.233  45.187  1.00 43.53    -0.572 OA
HETATM   20  O3S IDS C   3       8.920  16.242  47.489  1.00 50.85    -0.572 OA
ENDBRANCH  16  17
ENDBRANCH  10  16
BRANCH  11  21
HETATM   21  O4  SGN C   2      12.003  11.988  45.527  1.00 35.63    -0.348 OA
BRANCH  21  22
HETATM   22  C4  SGN C   2      12.755  11.266  46.495  1.00 34.14     0.186 C 
HETATM   23  C3  SGN C   2      13.094   9.908  45.888  1.00 36.01     0.178 C 
HETATM   24  C2  SGN C   2      14.148   9.128  46.677  1.00 38.29     0.182 C 
HETATM   25  C1  SGN C   2      15.337  10.014  47.054  1.00 40.25     0.287 C 
HETATM   26  O5  SGN C   2      14.867  11.183  47.696  1.00 40.44    -0.349 OA
HETATM   27  C5  SGN C   2      14.053  11.990  46.850  1.00 39.12     0.181 C 
BRANCH  23  28
HETATM   28  O3  SGN C   2      11.926   9.130  45.778  1.00 37.94    -0.391 OA
ATOM     29  H3  SGN C   2      11.311   9.389  46.454  1.00  0.00     0.210 HD
ENDBRANCH  23  28
BRANCH  24  30
HETATM   30  N2  SGN C   2      14.578   8.025  45.838  1.00 38.07    -0.289 N 
ATOM     31  H2  SGN C   2      15.096   8.229  44.982  1.00  0.00     0.175 HD
BRANCH  30  32
HETATM   32  S1  SGN C   2      14.268   6.501  46.208  1.00 51.36     0.205 S 
HETATM   33  O1S SGN C   2      14.465   6.347  47.646  1.00 53.59    -0.578 OA
HETATM   34  O2S SGN C   2      12.876   6.249  45.846  1.00 50.52    -0.578 OA
HETATM   35  O3S SGN C   2      15.212   5.706  45.429  1.00 54.39    -0.578 OA
ENDBRANCH  30  32
ENDBRANCH  24  30
BRANCH  25  36
HETATM   36  O4  BDP C   1      16.108  10.293  45.864  1.00 42.04    -0.348 OA
BRANCH  36  37
HETATM   37  C4  BDP C   1      17.246  11.039  46.128  1.00 48.48     0.195 C 
HETATM   38  C3  BDP C   1      18.047  10.351  47.184  1.00 51.01     0.181 C 
HETATM   39  C2  BDP C   1      19.428  10.901  47.282  1.00 53.01     0.173 C 
HETATM   40  C1  BDP C   1      20.077  10.987  45.944  1.00 54.14     0.203 C 
HETATM   41  O5  BDP C   1      19.276  11.745  45.116  1.00 54.15    -0.370 OA
HETATM   42  C5  BDP C   1      18.045  11.158  44.856  1.00 51.87     0.253 C 
BRANCH  38  43
HETATM   43  O3  BDP C   1      17.435  10.520  48.410  1.00 52.92    -0.390 OA
ATOM     44  H3  BDP C   1      17.469   9.688  48.870  1.00  0.00     0.210 HD
ENDBRANCH  38  43
BRANCH  39  45
HETATM   45  O2  BDP C   1      20.191  10.073  48.083  1.00 53.19    -0.391 OA
ATOM     46  H2  BDP C   1      21.065  10.024  47.715  1.00  0.00     0.210 HD
ENDBRANCH  39  45
BRANCH  42  47
HETATM   47  C6  BDP C   1      17.336  11.964  43.809  1.00 51.57     0.205 C 
HETATM   48  O6A BDP C   1      17.792  12.008  42.638  1.00 52.65    -0.646 OA
HETATM   49  O6B BDP C   1      16.290  12.602  44.105  1.00 51.09    -0.646 OA
ENDBRANCH  42  47
ENDBRANCH  36  37
ENDBRANCH  25  36
BRANCH  27  50
HETATM   50  C6  SGN C   2      13.801  13.340  47.515  1.00 42.92     0.227 C 
BRANCH  50  51
HETATM   51  O6  SGN C   2      14.498  13.420  48.739  1.00 46.75    -0.254 OA
BRANCH  51  52
HETATM   52  S2  SGN C   2      13.722  13.323  50.094  1.00 56.56     0.251 S 
HETATM   53  O4S SGN C   2      13.179  14.651  50.371  1.00 58.52    -0.572 OA
HETATM   54  O5S SGN C   2      12.668  12.327  49.944  1.00 53.95    -0.572 OA
HETATM   55  O6S SGN C   2      14.681  12.902  51.107  1.00 54.13    -0.572 OA
ENDBRANCH  51  52
ENDBRANCH  50  51
ENDBRANCH  27  50
ENDBRANCH  21  22
ENDBRANCH  11  21
BRANCH  13  56
HETATM   56  C6  IDS C   3       8.645   9.970  44.379  1.00 33.29     0.206 C 
HETATM   57  O6A IDS C   3       7.817   9.738  45.298  1.00 34.35    -0.646 OA
HETATM   58  O6B IDS C   3       8.689   9.217  43.370  1.00 34.80    -0.646 OA
ENDBRANCH  13  56
ENDBRANCH   7   8
ENDBRANCH   1   7
BRANCH   2  59
HETATM   59  N2  SGN C   4       6.761  15.035  42.877  1.00 24.47    -0.289 N 
ATOM     60  H2  SGN C   4       7.529  15.039  43.548  1.00  0.00     0.175 HD
BRANCH  59  61
HETATM   61  S1  SGN C   4       6.256  16.383  42.184  1.00 23.01     0.205 S 
HETATM   62  O1S SGN C   4       5.305  17.024  43.074  1.00 23.82    -0.578 OA
HETATM   63  O2S SGN C   4       7.418  17.240  41.975  1.00 21.15    -0.578 OA
HETATM   64  O3S SGN C   4       5.649  15.962  40.923  1.00 24.34    -0.578 OA
ENDBRANCH  59  61
ENDBRANCH   2  59
BRANCH   3  65
HETATM   65  O3  SGN C   4       3.980  14.657  43.310  1.00 24.01    -0.391 OA
ATOM     66  H3  SGN C   4       4.459  15.458  43.131  1.00  0.00     0.210 HD
ENDBRANCH   3  65
BRANCH   5  67
HETATM   67  C6  SGN C   4       4.671   9.816  42.681  1.00 29.42     0.227 C 
BRANCH  67  68
HETATM   68  O6  SGN C   4       5.639   8.799  42.811  1.00 33.38    -0.254 OA
BRANCH  68  69
HETATM   69  S2  SGN C   4       5.249   7.508  43.615  1.00 42.75     0.251 S 
HETATM   70  O4S SGN C   4       4.019   6.983  43.037  1.00 44.95    -0.572 OA
HETATM   71  O5S SGN C   4       6.378   6.600  43.478  1.00 42.87    -0.572 OA
HETATM   72  O6S SGN C   4       5.077   7.905  45.007  1.00 40.27    -0.572 OA
ENDBRANCH  68  69
ENDBRANCH  67  68
ENDBRANCH   5  67
BRANCH   4  73
HETATM   73  O4  SGN C   4       3.261  12.005  44.141  1.00 25.89    -0.348 OA
BRANCH  73  74
HETATM   74  C1  BDP C   5       3.745  12.307  45.467  1.00 28.36     0.292 C 
HETATM   75  C2  BDP C   5       2.708  13.067  46.235  1.00 31.13     0.204 C 
HETATM   76  C3  BDP C   5       3.230  13.480  47.567  1.00 33.85     0.183 C 
HETATM   77  C4  BDP C   5       3.813  12.325  48.311  1.00 31.81     0.195 C 
HETATM   78  C5  BDP C   5       4.707  11.516  47.397  1.00 27.14     0.257 C 
HETATM   79  O5  BDP C   5       4.062  11.177  46.205  1.00 24.75    -0.340 OA
BRANCH  75  80
HETATM   80  O2  BDP C   5       2.323  14.208  45.546  1.00 34.37    -0.388 OA
ATOM     81  H2  BDP C   5       1.960  14.854  46.140  1.00  0.00     0.210 HD
ENDBRANCH  75  80
BRANCH  76  82
HETATM   82  O3  BDP C   5       2.179  14.022  48.282  1.00 34.34    -0.390 OA
ATOM     83  H3  BDP C   5       1.904  14.815  47.836  1.00  0.00     0.210 HD
ENDBRANCH  76  82
BRANCH  77  84
HETATM   84  O4  BDP C   5       4.596  12.795  49.365  1.00 33.34    -0.348 OA
BRANCH  84  85
HETATM   85  C1  NGY C   6       5.332  14.003  49.060  1.00 35.33     0.286 C 
HETATM   86  C2  NGY C   6       6.635  13.960  49.789  1.00 39.33     0.170 C 
HETATM   87  C3  NGY C   6       6.359  14.036  51.250  1.00 39.13     0.177 C 
HETATM   88  C4  NGY C   6       5.636  15.306  51.528  1.00 37.06     0.180 C 
HETATM   89  C5  NGY C   6       4.366  15.282  50.741  1.00 32.98     0.181 C 
HETATM   90  O5  NGY C   6       4.672  15.168  49.401  1.00 32.46    -0.349 OA
BRANCH  86  91
HETATM   91  N2  NGY C   6       7.299  12.725  49.505  1.00 39.90    -0.349 N 
HETATM   92  C7  NGY C   6       8.716  12.690  49.329  1.00 44.73     0.214 C 
HETATM   93  O7  NGY C   6       9.372  13.718  49.419  1.00 46.19    -0.274 OA
HETATM   94  C8  NGY C   6       9.384  11.389  49.034  1.00 43.79     0.117 C 
ATOM     95  H2  NGY C   6       6.757  11.864  49.428  1.00  0.00     0.163 HD
ENDBRANCH  86  91
BRANCH  87  96
HETATM   96  O3  NGY C   6       7.539  13.991  51.962  1.00 44.02    -0.391 OA
ATOM     97  H3  NGY C   6       7.532  14.642  52.654  1.00  0.00     0.210 HD
ENDBRANCH  87  96
BRANCH  88  98
HETATM   98  O4  NGY C   6       5.355  15.388  52.873  1.00 37.39    -0.390 OA
ATOM     99  H4  NGY C   6       5.646  16.228  53.207  1.00  0.00     0.210 HD
ENDBRANCH  88  98
BRANCH  89 100
HETATM  100  C6  NGY C   6       3.541  16.505  50.995  1.00 31.91     0.227 C 
BRANCH 100 101
HETATM  101  O6  NGY C   6       4.325  17.631  51.161  1.00 36.15    -0.254 OA
BRANCH 101 102
HETATM  102  S   NGY C   6       4.202  18.441  52.394  1.00 34.85     0.251 S 
HETATM  103  O7A NGY C   6       3.572  19.703  52.105  1.00 33.41    -0.572 OA
HETATM  104  O8  NGY C   6       5.570  18.643  52.869  1.00 30.21    -0.572 OA
HETATM  105  O9  NGY C   6       3.410  17.716  53.358  1.00 38.01    -0.572 OA
ENDBRANCH 101 102
ENDBRANCH 100 101
ENDBRANCH  89 100
ENDBRANCH  84  85
ENDBRANCH  77  84
BRANCH  78 106
HETATM  106  C6  BDP C   5       5.250  10.282  48.054  1.00 29.31     0.206 C 
HETATM  107  O6A BDP C   5       6.490  10.152  48.202  1.00 32.10    -0.646 OA
HETATM  108  O6B BDP C   5       4.475   9.369  48.439  1.00 26.46    -0.646 OA
ENDBRANCH  78 106
ENDBRANCH  73  74
ENDBRANCH   4  73
TORSDOF 38
ENDMDL
MODEL 15
REMARK VINA RESULT:      -7.8      2.495      5.237
REMARK WARNING: 32 MAX_TORS EXCEEDED!!!
REMARK  38 active torsions:
REMARK  status: ('A' for Active; 'I' for Inactive)
REMARK    1  A    between atoms: C2_2  and  O2_3 
REMARK    2  A    between atoms: C3_5  and  O3_6 
REMARK    3  A    between atoms: C4_8  and  O4_9 
REMARK    4  A    between atoms: O4_9  and  C1_15 
REMARK    5  A    between atoms: C5_10  and  C6_12 
REMARK    6  A    between atoms: S1_17  and  N2_19 
REMARK    7  A    between atoms: C2_18  and  N2_19 
REMARK    8  A    between atoms: S2_22  and  O6_34 
REMARK    9  A    between atoms: C3_23  and  O3_24 
REMARK   10  A    between atoms: C4_27  and  O4_28 
REMARK   11  A    between atoms: O4_28  and  C1_36 
REMARK   12  A    between atoms: C5_30  and  C6_33 
REMARK   13  A    between atoms: C6_33  and  O6_34 
REMARK   14  A    between atoms: C2_38  and  O2_39 
REMARK   15  A    between atoms: O2_39  and  S_52 
REMARK   16  A    between atoms: C3_41  and  O3_42 
REMARK   17  A    between atoms: C4_45  and  O4_46 
REMARK   18  A    between atoms: O4_46  and  C1_53 
REMARK   19  A    between atoms: C5_47  and  C6_49 
REMARK   20  A    between atoms: S1_55  and  N2_57 
REMARK   21  A    between atoms: C2_56  and  N2_57 
REMARK   22  A    between atoms: S2_60  and  O6_72 
REMARK   23  A    between atoms: C3_61  and  O3_62 
REMARK   24  A    between atoms: C4_65  and  O4_66 
REMARK   25  A    between atoms: O4_66  and  C1_74 
REMARK   26  A    between atoms: C5_68  and  C6_71 
REMARK   27  A    between atoms: C6_71  and  O6_72 
REMARK   28  A    between atoms: C2_75  and  O2_76 
REMARK   29  A    between atoms: C3_78  and  O3_79 
REMARK   30  A    between atoms: C4_81  and  O4_82 
REMARK   31  A    between atoms: O4_82  and  C1_88 
REMARK   32  A    between atoms: C5_83  and  C6_85 
REMARK   33  A    between atoms: C2_89  and  N2_90 
REMARK       I    between atoms: N2_90  and  C7_102 
REMARK   34  A    between atoms: C3_92  and  O3_93 
REMARK   35  A    between atoms: C4_95  and  O4_96 
REMARK   36  A    between atoms: C5_98  and  C6_100 
REMARK   37  A    between atoms: C6_100  and  O6_101 
REMARK   38  A    between atoms: O6_101  and  S_108 
ROOT
HETATM    1  C1  SGN C   4      13.302  12.510  48.479  1.00 25.95     0.287 C 
HETATM    2  C2  SGN C   4      14.364  13.602  48.315  1.00 24.33     0.182 C 
HETATM    3  C3  SGN C   4      15.067  13.508  46.964  1.00 24.72     0.178 C 
HETATM    4  C4  SGN C   4      15.622  12.108  46.752  1.00 24.11     0.186 C 
HETATM    5  C5  SGN C   4      14.501  11.102  47.019  1.00 25.01     0.181 C 
HETATM    6  O5  SGN C   4      13.948  11.263  48.312  1.00 24.61    -0.349 OA
ENDROOT
BRANCH   1   7
HETATM    7  O4  IDS C   3      12.190  12.692  47.566  1.00 24.52    -0.348 OA
BRANCH   7   8
HETATM    8  C4  IDS C   3      11.275  11.641  47.667  1.00 32.57     0.195 C 
HETATM    9  C3  IDS C   3      10.391  11.767  48.877  1.00 36.22     0.185 C 
HETATM   10  C2  IDS C   3       9.107  12.537  48.657  1.00 37.49     0.231 C 
HETATM   11  C1  IDS C   3       8.508  12.280  47.308  1.00 32.35     0.294 C 
HETATM   12  O5  IDS C   3       9.469  12.473  46.344  1.00 29.95    -0.340 OA
HETATM   13  C5  IDS C   3      10.444  11.506  46.420  1.00 31.73     0.257 C 
BRANCH   9  14
HETATM   14  O3  IDS C   3      10.046  10.496  49.297  1.00 35.64    -0.390 OA
ATOM     15  H3  IDS C   3       9.510  10.589  50.075  1.00  0.00     0.210 HD
ENDBRANCH   9  14
BRANCH  10  16
HETATM   16  O2  IDS C   3       9.306  13.893  48.846  1.00 41.30    -0.244 OA
BRANCH  16  17
HETATM   17  S   IDS C   3       8.353  14.637  49.691  1.00 46.67     0.252 S 
HETATM   18  O1S IDS C   3       7.580  15.544  48.881  1.00 45.84    -0.572 OA
HETATM   19  O2S IDS C   3       7.492  13.629  50.323  1.00 43.53    -0.572 OA
HETATM   20  O3S IDS C   3       9.049  15.388  50.707  1.00 50.85    -0.572 OA
ENDBRANCH  16  17
ENDBRANCH  10  16
BRANCH  11  21
HETATM   21  O4  SGN C   2       7.868  10.980  47.291  1.00 35.63    -0.348 OA
BRANCH  21  22
HETATM   22  C4  SGN C   2       6.647  10.962  46.561  1.00 34.14     0.186 C 
HETATM   23  C3  SGN C   2       5.998  12.332  46.724  1.00 36.01     0.178 C 
HETATM   24  C2  SGN C   2       4.833  12.578  45.762  1.00 38.29     0.182 C 
HETATM   25  C1  SGN C   2       5.186  12.164  44.333  1.00 40.25     0.287 C 
HETATM   26  O5  SGN C   2       5.677  10.838  44.335  1.00 40.44    -0.349 OA
HETATM   27  C5  SGN C   2       6.887  10.697  45.075  1.00 39.12     0.181 C 
BRANCH  23  28
HETATM   28  O3  SGN C   2       5.550  12.494  48.048  1.00 37.94    -0.391 OA
ATOM     29  H3  SGN C   2       6.278  12.770  48.594  1.00  0.00     0.210 HD
ENDBRANCH  23  28
BRANCH  24  30
HETATM   30  N2  SGN C   2       4.523  13.995  45.823  1.00 38.07    -0.289 N 
ATOM     31  H2  SGN C   2       5.199  14.663  45.452  1.00  0.00     0.175 HD
BRANCH  30  32
HETATM   32  S1  SGN C   2       3.159  14.542  46.452  1.00 51.36     0.205 S 
HETATM   33  O1S SGN C   2       2.107  14.350  45.459  1.00 53.59    -0.578 OA
HETATM   34  O2S SGN C   2       2.893  13.751  47.649  1.00 50.52    -0.578 OA
HETATM   35  O3S SGN C   2       3.398  15.952  46.743  1.00 54.39    -0.578 OA
ENDBRANCH  30  32
ENDBRANCH  24  30
BRANCH  25  36
HETATM   36  O4  BDP C   1       6.130  13.116  43.791  1.00 42.04    -0.348 OA
BRANCH  36  37
HETATM   37  C4  BDP C   1       5.990  13.286  42.422  1.00 48.48     0.195 C 
HETATM   38  C3  BDP C   1       5.848  11.948  41.775  1.00 51.01     0.181 C 
HETATM   39  C2  BDP C   1       5.361  12.056  40.372  1.00 53.01     0.173 C 
HETATM   40  C1  BDP C   1       4.167  12.940  40.276  1.00 54.14     0.203 C 
HETATM   41  O5  BDP C   1       4.488  14.171  40.808  1.00 54.15    -0.370 OA
HETATM   42  C5  BDP C   1       4.765  14.125  42.168  1.00 51.87     0.253 C 
BRANCH  38  43
HETATM   43  O3  BDP C   1       7.075  11.314  41.752  1.00 52.92    -0.390 OA
ATOM     44  H3  BDP C   1       7.485  11.440  42.600  1.00  0.00     0.210 HD
ENDBRANCH  38  43
BRANCH  39  45
HETATM   45  O2  BDP C   1       5.010  10.800  39.915  1.00 53.19    -0.391 OA
ATOM     46  H2  BDP C   1       5.787  10.382  39.563  1.00  0.00     0.210 HD
ENDBRANCH  39  45
BRANCH  42  47
HETATM   47  C6  BDP C   1       4.916  15.526  42.679  1.00 51.57     0.205 C 
HETATM   48  O6A BDP C   1       4.027  16.024  43.417  1.00 52.65    -0.646 OA
HETATM   49  O6B BDP C   1       5.928  16.208  42.362  1.00 51.09    -0.646 OA
ENDBRANCH  42  47
ENDBRANCH  36  37
ENDBRANCH  25  36
BRANCH  27  50
HETATM   50  C6  SGN C   2       7.486   9.318  44.821  1.00 42.92     0.227 C 
BRANCH  50  51
HETATM   51  O6  SGN C   2       8.758   9.440  44.222  1.00 46.75    -0.254 OA
BRANCH  51  52
HETATM   52  S2  SGN C   2       9.520   8.166  43.727  1.00 56.56     0.251 S 
HETATM   53  O4S SGN C   2      10.414   7.755  44.809  1.00 58.52    -0.572 OA
HETATM   54  O5S SGN C   2       8.534   7.137  43.420  1.00 53.95    -0.572 OA
HETATM   55  O6S SGN C   2      10.253   8.545  42.527  1.00 54.13    -0.572 OA
ENDBRANCH  51  52
ENDBRANCH  50  51
ENDBRANCH  27  50
ENDBRANCH  21  22
ENDBRANCH  11  21
BRANCH  13  56
HETATM   56  C6  IDS C   3      11.321  11.637  45.215  1.00 33.29     0.206 C 
HETATM   57  O6A IDS C   3      12.018  10.663  44.827  1.00 34.35    -0.646 OA
HETATM   58  O6B IDS C   3      11.371  12.731  44.593  1.00 34.80    -0.646 OA
ENDBRANCH  13  56
ENDBRANCH   7   8
ENDBRANCH   1   7
BRANCH   2  59
HETATM   59  N2  SGN C   4      13.794  14.927  48.478  1.00 24.47    -0.289 N 
ATOM     60  H2  SGN C   4      13.107  15.295  47.820  1.00  0.00     0.175 HD
BRANCH  59  61
HETATM   61  S1  SGN C   4      14.287  15.786  49.731  1.00 23.01     0.205 S 
HETATM   62  O1S SGN C   4      13.601  17.065  49.705  1.00 23.82    -0.578 OA
HETATM   63  O2S SGN C   4      13.944  15.047  50.942  1.00 21.15    -0.578 OA
HETATM   64  O3S SGN C   4      15.732  15.920  49.560  1.00 24.34    -0.578 OA
ENDBRANCH  59  61
ENDBRANCH   2  59
BRANCH   3  65
HETATM   65  O3  SGN C   4      16.112  14.459  46.907  1.00 24.01    -0.391 OA
ATOM     66  H3  SGN C   4      15.969  15.044  46.172  1.00  0.00     0.210 HD
ENDBRANCH   3  65
BRANCH   5  67
HETATM   67  C6  SGN C   4      14.978   9.661  46.891  1.00 29.42     0.227 C 
BRANCH  67  68
HETATM   68  O6  SGN C   4      13.893   8.803  46.622  1.00 33.38    -0.254 OA
BRANCH  68  69
HETATM   69  S2  SGN C   4      14.113   7.258  46.793  1.00 42.75     0.251 S 
HETATM   70  O4S SGN C   4      14.733   7.043  48.094  1.00 44.95    -0.572 OA
HETATM   71  O5S SGN C   4      12.793   6.655  46.683  1.00 42.87    -0.572 OA
HETATM   72  O6S SGN C   4      14.968   6.822  45.696  1.00 40.27    -0.572 OA
ENDBRANCH  68  69
ENDBRANCH  67  68
ENDBRANCH   5  67
BRANCH   4  73
HETATM   73  O4  SGN C   4      16.049  12.016  45.401  1.00 25.89    -0.348 OA
BRANCH  73  74
HETATM   74  C1  BDP C   5      17.397  11.525  45.244  1.00 28.36     0.292 C 
HETATM   75  C2  BDP C   5      18.090  12.263  44.139  1.00 31.13     0.204 C 
HETATM   76  C3  BDP C   5      19.445  11.698  43.892  1.00 33.85     0.183 C 
HETATM   77  C4  BDP C   5      20.239  11.602  45.151  1.00 31.81     0.195 C 
HETATM   78  C5  BDP C   5      19.393  11.008  46.256  1.00 27.14     0.257 C 
HETATM   79  O5  BDP C   5      18.169  11.669  46.386  1.00 24.75    -0.340 OA
BRANCH  75  80
HETATM   80  O2  BDP C   5      17.363  12.181  42.961  1.00 34.37    -0.388 OA
ATOM     81  H2  BDP C   5      17.471  11.328  42.556  1.00  0.00     0.210 HD
ENDBRANCH  75  80
BRANCH  76  82
HETATM   82  O3  BDP C   5      20.087  12.523  42.988  1.00 34.34    -0.390 OA
ATOM     83  H3  BDP C   5      19.606  12.485  42.169  1.00  0.00     0.210 HD
ENDBRANCH  76  82
BRANCH  77  84
HETATM   84  O4  BDP C   5      21.332  10.759  44.952  1.00 33.34    -0.348 OA
BRANCH  84  85
HETATM   85  C1  NGY C   6      22.530  11.168  45.653  1.00 35.33     0.286 C 
HETATM   86  C2  NGY C   6      23.371  11.976  44.721  1.00 39.33     0.170 C 
HETATM   87  C3  NGY C   6      23.851  11.085  43.628  1.00 39.13     0.177 C 
HETATM   88  C4  NGY C   6      24.640   9.979  44.234  1.00 37.06     0.180 C 
HETATM   89  C5  NGY C   6      23.739   9.244  45.172  1.00 32.98     0.181 C 
HETATM   90  O5  NGY C   6      23.287  10.119  46.138  1.00 32.46    -0.349 OA
BRANCH  86  91
HETATM   91  N2  NGY C   6      22.580  13.024  44.152  1.00 39.90    -0.349 N 
HETATM   92  C7  NGY C   6      22.657  14.351  44.673  1.00 44.73     0.214 C 
HETATM   93  O7  NGY C   6      23.400  14.602  45.611  1.00 46.19    -0.274 OA
HETATM   94  C8  NGY C   6      21.821  15.426  44.061  1.00 43.79     0.117 C 
ATOM     95  H2  NGY C   6      21.958  12.821  43.369  1.00  0.00     0.163 HD
ENDBRANCH  86  91
BRANCH  87  96
HETATM   96  O3  NGY C   6      24.627  11.795  42.738  1.00 44.02    -0.391 OA
ATOM     97  H3  NGY C   6      24.083  12.193  42.069  1.00  0.00     0.210 HD
ENDBRANCH  87  96
BRANCH  88  98
HETATM   98  O4  NGY C   6      25.079   9.132  43.242  1.00 37.39    -0.390 OA
ATOM     99  H4  NGY C   6      25.124   9.606  42.420  1.00  0.00     0.210 HD
ENDBRANCH  88  98
BRANCH  89 100
HETATM  100  C6  NGY C   6      24.434   8.076  45.798  1.00 31.91     0.227 C 
BRANCH 100 101
HETATM  101  O6  NGY C   6      25.135   8.440  46.932  1.00 36.15    -0.254 OA
BRANCH 101 102
HETATM  102  S   NGY C   6      26.566   8.085  47.062  1.00 34.85     0.251 S 
HETATM  103  O7A NGY C   6      27.062   8.463  48.359  1.00 33.41    -0.572 OA
HETATM  104  O8  NGY C   6      27.252   8.830  46.008  1.00 30.21    -0.572 OA
HETATM  105  O9  NGY C   6      26.716   6.660  46.884  1.00 38.01    -0.572 OA
ENDBRANCH 101 102
ENDBRANCH 100 101
ENDBRANCH  89 100
ENDBRANCH  84  85
ENDBRANCH  77  84
BRANCH  78 106
HETATM  106  C6  BDP C   5      20.099  10.973  47.578  1.00 29.31     0.206 C 
HETATM  107  O6A BDP C   5      20.325   9.869  48.133  1.00 32.10    -0.646 OA
HETATM  108  O6B BDP C   5      20.450  12.041  48.144  1.00 26.46    -0.646 OA
ENDBRANCH  78 106
ENDBRANCH  73  74
ENDBRANCH   4  73
TORSDOF 38
ENDMDL
MODEL 16
REMARK VINA RESULT:      -7.8      3.255     15.588
REMARK WARNING: 32 MAX_TORS EXCEEDED!!!
REMARK  38 active torsions:
REMARK  status: ('A' for Active; 'I' for Inactive)
REMARK    1  A    between atoms: C2_2  and  O2_3 
REMARK    2  A    between atoms: C3_5  and  O3_6 
REMARK    3  A    between atoms: C4_8  and  O4_9 
REMARK    4  A    between atoms: O4_9  and  C1_15 
REMARK    5  A    between atoms: C5_10  and  C6_12 
REMARK    6  A    between atoms: S1_17  and  N2_19 
REMARK    7  A    between atoms: C2_18  and  N2_19 
REMARK    8  A    between atoms: S2_22  and  O6_34 
REMARK    9  A    between atoms: C3_23  and  O3_24 
REMARK   10  A    between atoms: C4_27  and  O4_28 
REMARK   11  A    between atoms: O4_28  and  C1_36 
REMARK   12  A    between atoms: C5_30  and  C6_33 
REMARK   13  A    between atoms: C6_33  and  O6_34 
REMARK   14  A    between atoms: C2_38  and  O2_39 
REMARK   15  A    between atoms: O2_39  and  S_52 
REMARK   16  A    between atoms: C3_41  and  O3_42 
REMARK   17  A    between atoms: C4_45  and  O4_46 
REMARK   18  A    between atoms: O4_46  and  C1_53 
REMARK   19  A    between atoms: C5_47  and  C6_49 
REMARK   20  A    between atoms: S1_55  and  N2_57 
REMARK   21  A    between atoms: C2_56  and  N2_57 
REMARK   22  A    between atoms: S2_60  and  O6_72 
REMARK   23  A    between atoms: C3_61  and  O3_62 
REMARK   24  A    between atoms: C4_65  and  O4_66 
REMARK   25  A    between atoms: O4_66  and  C1_74 
REMARK   26  A    between atoms: C5_68  and  C6_71 
REMARK   27  A    between atoms: C6_71  and  O6_72 
REMARK   28  A    between atoms: C2_75  and  O2_76 
REMARK   29  A    between atoms: C3_78  and  O3_79 
REMARK   30  A    between atoms: C4_81  and  O4_82 
REMARK   31  A    between atoms: O4_82  and  C1_88 
REMARK   32  A    between atoms: C5_83  and  C6_85 
REMARK   33  A    between atoms: C2_89  and  N2_90 
REMARK       I    between atoms: N2_90  and  C7_102 
REMARK   34  A    between atoms: C3_92  and  O3_93 
REMARK   35  A    between atoms: C4_95  and  O4_96 
REMARK   36  A    between atoms: C5_98  and  C6_100 
REMARK   37  A    between atoms: C6_100  and  O6_101 
REMARK   38  A    between atoms: O6_101  and  S_108 
ROOT
HETATM    1  C1  SGN C   4       7.227  11.119  44.807  1.00 25.95     0.287 C 
HETATM    2  C2  SGN C   4       6.007  10.436  45.432  1.00 24.33     0.182 C 
HETATM    3  C3  SGN C   4       5.423   9.369  44.510  1.00 24.72     0.178 C 
HETATM    4  C4  SGN C   4       5.132   9.957  43.138  1.00 24.11     0.186 C 
HETATM    5  C5  SGN C   4       6.389  10.679  42.650  1.00 25.01     0.181 C 
HETATM    6  O5  SGN C   4       6.818  11.666  43.568  1.00 24.61    -0.349 OA
ENDROOT
BRANCH   1   7
HETATM    7  O4  IDS C   3       8.351  10.211  44.674  1.00 24.52    -0.348 OA
BRANCH   7   8
HETATM    8  C4  IDS C   3       9.513  10.893  44.304  1.00 32.57     0.195 C 
HETATM    9  C3  IDS C   3       9.742  12.125  45.134  1.00 36.22     0.185 C 
HETATM   10  C2  IDS C   3      10.562  11.911  46.388  1.00 37.49     0.231 C 
HETATM   11  C1  IDS C   3      11.668  10.920  46.187  1.00 32.35     0.294 C 
HETATM   12  O5  IDS C   3      11.149   9.773  45.634  1.00 29.95    -0.340 OA
HETATM   13  C5  IDS C   3      10.721   9.997  44.346  1.00 31.73     0.257 C 
BRANCH   9  14
HETATM   14  O3  IDS C   3      10.405  13.056  44.358  1.00 35.64    -0.390 OA
ATOM     15  H3  IDS C   3      10.959  13.567  44.936  1.00  0.00     0.210 HD
ENDBRANCH   9  14
BRANCH  10  16
HETATM   16  O2  IDS C   3       9.757  11.528  47.446  1.00 41.30    -0.244 OA
BRANCH  16  17
HETATM   17  S   IDS C   3      10.170  11.888  48.815  1.00 46.67     0.252 S 
HETATM   18  O1S IDS C   3      11.509  12.421  48.802  1.00 45.84    -0.572 OA
HETATM   19  O2S IDS C   3       9.206  12.891  49.285  1.00 43.53    -0.572 OA
HETATM   20  O3S IDS C   3      10.132  10.734  49.680  1.00 50.85    -0.572 OA
ENDBRANCH  16  17
ENDBRANCH  10  16
BRANCH  11  21
HETATM   21  O4  SGN C   2      12.750  11.531  45.443  1.00 35.63    -0.348 OA
BRANCH  21  22
HETATM   22  C4  SGN C   2      13.913  11.764  46.227  1.00 34.14     0.186 C 
HETATM   23  C3  SGN C   2      15.036  10.913  45.644  1.00 36.01     0.178 C 
HETATM   24  C2  SGN C   2      16.423  11.272  46.182  1.00 38.29     0.182 C 
HETATM   25  C1  SGN C   2      16.652  12.783  46.181  1.00 40.25     0.287 C 
HETATM   26  O5  SGN C   2      15.580  13.423  46.845  1.00 40.44    -0.349 OA
HETATM   27  C5  SGN C   2      14.331  13.234  46.187  1.00 39.12     0.181 C 
BRANCH  23  28
HETATM   28  O3  SGN C   2      14.779   9.551  45.889  1.00 37.94    -0.391 OA
ATOM     29  H3  SGN C   2      15.093   9.323  46.757  1.00  0.00     0.210 HD
ENDBRANCH  23  28
BRANCH  24  30
HETATM   30  N2  SGN C   2      17.394  10.606  45.333  1.00 38.07    -0.289 N 
ATOM     31  H2  SGN C   2      17.181  10.485  44.342  1.00  0.00     0.175 HD
BRANCH  30  32
HETATM   32  S1  SGN C   2      18.785  10.056  45.898  1.00 51.36     0.205 S 
HETATM   33  O1S SGN C   2      18.649   9.912  47.343  1.00 53.59    -0.578 OA
HETATM   34  O2S SGN C   2      19.019   8.761  45.267  1.00 50.52    -0.578 OA
HETATM   35  O3S SGN C   2      19.782  11.057  45.531  1.00 54.39    -0.578 OA
ENDBRANCH  30  32
ENDBRANCH  24  30
BRANCH  25  36
HETATM   36  O4  BDP C   1      16.819  13.230  44.815  1.00 42.04    -0.348 OA
BRANCH  36  37
HETATM   37  C4  BDP C   1      17.449  14.462  44.730  1.00 48.48     0.195 C 
HETATM   38  C3  BDP C   1      18.913  14.249  44.527  1.00 51.01     0.181 C 
HETATM   39  C2  BDP C   1      19.602  15.496  44.093  1.00 53.01     0.173 C 
HETATM   40  C1  BDP C   1      18.890  16.147  42.959  1.00 54.14     0.203 C 
HETATM   41  O5  BDP C   1      17.585  16.382  43.338  1.00 54.15    -0.370 OA
HETATM   42  C5  BDP C   1      16.862  15.219  43.567  1.00 51.87     0.253 C 
BRANCH  38  43
HETATM   43  O3  BDP C   1      19.488  13.836  45.713  1.00 52.92    -0.390 OA
ATOM     44  H3  BDP C   1      18.831  13.356  46.205  1.00  0.00     0.210 HD
ENDBRANCH  38  43
BRANCH  39  45
HETATM   45  O2  BDP C   1      20.884  15.187  43.682  1.00 53.19    -0.391 OA
ATOM     46  H2  BDP C   1      21.392  15.989  43.655  1.00  0.00     0.210 HD
ENDBRANCH  39  45
BRANCH  42  47
HETATM   47  C6  BDP C   1      15.423  15.578  43.787  1.00 51.57     0.205 C 
HETATM   48  O6A BDP C   1      15.119  16.440  44.653  1.00 52.65    -0.646 OA
HETATM   49  O6B BDP C   1      14.521  15.013  43.113  1.00 51.09    -0.646 OA
ENDBRANCH  42  47
ENDBRANCH  36  37
ENDBRANCH  25  36
BRANCH  27  50
HETATM   50  C6  SGN C   2      13.281  14.152  46.806  1.00 42.92     0.227 C 
BRANCH  50  51
HETATM   51  O6  SGN C   2      12.501  14.753  45.796  1.00 46.75    -0.254 OA
BRANCH  51  52
HETATM   52  S2  SGN C   2      11.422  15.823  46.168  1.00 56.56     0.251 S 
HETATM   53  O4S SGN C   2      10.488  15.898  45.046  1.00 58.52    -0.572 OA
HETATM   54  O5S SGN C   2      10.760  15.393  47.394  1.00 53.95    -0.572 OA
HETATM   55  O6S SGN C   2      12.122  17.082  46.381  1.00 54.13    -0.572 OA
ENDBRANCH  51  52
ENDBRANCH  50  51
ENDBRANCH  27  50
ENDBRANCH  21  22
ENDBRANCH  11  21
BRANCH  13  56
HETATM   56  C6  IDS C   3      10.387   8.675  43.731  1.00 33.29     0.206 C 
HETATM   57  O6A IDS C   3      10.194   8.580  42.492  1.00 34.35    -0.646 OA
HETATM   58  O6B IDS C   3      10.288   7.652  44.461  1.00 34.80    -0.646 OA
ENDBRANCH  13  56
ENDBRANCH   7   8
ENDBRANCH   1   7
BRANCH   2  59
HETATM   59  N2  SGN C   4       6.329   9.846  46.719  1.00 24.47    -0.289 N 
ATOM     60  H2  SGN C   4       7.081   9.163  46.817  1.00  0.00     0.175 HD
BRANCH  59  61
HETATM   61  S1  SGN C   4       5.459  10.311  47.975  1.00 23.01     0.205 S 
HETATM   62  O1S SGN C   4       4.846  11.588  47.656  1.00 23.82    -0.578 OA
HETATM   63  O2S SGN C   4       4.436   9.298  48.209  1.00 21.15    -0.578 OA
HETATM   64  O3S SGN C   4       6.405  10.405  49.084  1.00 24.34    -0.578 OA
ENDBRANCH  59  61
ENDBRANCH   2  59
BRANCH   3  65
HETATM   65  O3  SGN C   4       4.237   8.850  45.079  1.00 24.01    -0.391 OA
ATOM     66  H3  SGN C   4       4.379   8.671  46.001  1.00  0.00     0.210 HD
ENDBRANCH   3  65
BRANCH   5  67
HETATM   67  C6  SGN C   4       6.174  11.357  41.302  1.00 29.42     0.227 C 
BRANCH  67  68
HETATM   68  O6  SGN C   4       5.753  12.691  41.481  1.00 33.38    -0.254 OA
BRANCH  68  69
HETATM   69  S2  SGN C   4       4.398  13.132  40.822  1.00 42.75     0.251 S 
HETATM   70  O4S SGN C   4       4.395  12.638  39.451  1.00 44.95    -0.572 OA
HETATM   71  O5S SGN C   4       3.348  12.546  41.642  1.00 42.87    -0.572 OA
HETATM   72  O6S SGN C   4       4.345  14.587  40.883  1.00 40.27    -0.572 OA
ENDBRANCH  68  69
ENDBRANCH  67  68
ENDBRANCH   5  67
BRANCH   4  73
HETATM   73  O4  SGN C   4       4.818   8.879  42.268  1.00 25.89    -0.348 OA
BRANCH  73  74
HETATM   74  C1  BDP C   5       3.404   8.621  42.139  1.00 28.36     0.292 C 
HETATM   75  C2  BDP C   5       3.002   8.653  40.696  1.00 31.13     0.204 C 
HETATM   76  C3  BDP C   5       1.529   8.495  40.553  1.00 33.85     0.183 C 
HETATM   77  C4  BDP C   5       1.028   7.303  41.298  1.00 31.81     0.195 C 
HETATM   78  C5  BDP C   5       1.632   7.265  42.684  1.00 27.14     0.257 C 
HETATM   79  O5  BDP C   5       3.023   7.390  42.648  1.00 24.75    -0.340 OA
BRANCH  75  80
HETATM   80  O2  BDP C   5       3.371   9.854  40.109  1.00 34.37    -0.388 OA
ATOM     81  H2  BDP C   5       3.163  10.586  40.679  1.00  0.00     0.210 HD
ENDBRANCH  75  80
BRANCH  76  82
HETATM   82  O3  BDP C   5       1.249   8.364  39.205  1.00 34.34    -0.390 OA
ATOM     83  H3  BDP C   5       0.810   9.158  38.922  1.00  0.00     0.210 HD
ENDBRANCH  76  82
BRANCH  77  84
HETATM   84  O4  BDP C   5      -0.357   7.389  41.439  1.00 33.34    -0.348 OA
BRANCH  84  85
HETATM   85  C1  NGY C   6      -0.805   8.556  42.167  1.00 35.33     0.286 C 
HETATM   86  C2  NGY C   6      -2.141   8.258  42.763  1.00 39.33     0.170 C 
HETATM   87  C3  NGY C   6      -3.124   8.093  41.658  1.00 39.13     0.177 C 
HETATM   88  C4  NGY C   6      -3.163   9.355  40.869  1.00 37.06     0.180 C 
HETATM   89  C5  NGY C   6      -1.788   9.595  40.337  1.00 32.98     0.181 C 
HETATM   90  O5  NGY C   6      -0.909   9.697  41.395  1.00 32.46    -0.349 OA
BRANCH  86  91
HETATM   91  N2  NGY C   6      -2.069   7.037  43.506  1.00 39.90    -0.349 N 
HETATM   92  C7  NGY C   6      -2.719   6.923  44.773  1.00 44.73     0.214 C 
HETATM   93  O7  NGY C   6      -3.341   7.870  45.234  1.00 46.19    -0.274 OA
HETATM   94  C8  NGY C   6      -2.628   5.638  45.528  1.00 43.79     0.117 C 
ATOM     95  H2  NGY C   6      -1.552   6.244  43.128  1.00  0.00     0.163 HD
ENDBRANCH  86  91
BRANCH  87  96
HETATM   96  O3  NGY C   6      -4.373   7.808  42.166  1.00 44.02    -0.391 OA
ATOM     97  H3  NGY C   6      -5.000   8.467  41.891  1.00  0.00     0.210 HD
ENDBRANCH  87  96
BRANCH  88  98
HETATM   98  O4  NGY C   6      -4.054   9.218  39.829  1.00 37.39    -0.390 OA
ATOM     99  H4  NGY C   6      -4.541  10.027  39.722  1.00  0.00     0.210 HD
ENDBRANCH  88  98
BRANCH  89 100
HETATM  100  C6  NGY C   6      -1.737  10.825  39.485  1.00 31.91     0.227 C 
BRANCH 100 101
HETATM  101  O6  NGY C   6      -0.761  10.738  38.511  1.00 36.15    -0.254 OA
BRANCH 101 102
HETATM  102  S   NGY C   6       0.329  11.738  38.465  1.00 34.85     0.251 S 
HETATM  103  O7A NGY C   6       1.563  11.119  38.057  1.00 33.41    -0.572 OA
HETATM  104  O8  NGY C   6       0.438  12.261  39.827  1.00 30.21    -0.572 OA
HETATM  105  O9  NGY C   6      -0.023  12.777  37.527  1.00 38.01    -0.572 OA
ENDBRANCH 101 102
ENDBRANCH 100 101
ENDBRANCH  89 100
ENDBRANCH  84  85
ENDBRANCH  77  84
BRANCH  78 106
HETATM  106  C6  BDP C   5       1.248   6.039  43.455  1.00 29.31     0.206 C 
HETATM  107  O6A BDP C   5       1.344   4.908  42.915  1.00 32.10    -0.646 OA
HETATM  108  O6B BDP C   5       0.812   6.132  44.632  1.00 26.46    -0.646 OA
ENDBRANCH  78 106
ENDBRANCH  73  74
ENDBRANCH   4  73
TORSDOF 38
ENDMDL
MODEL 17
REMARK VINA RESULT:      -7.7      2.446     15.523
REMARK WARNING: 32 MAX_TORS EXCEEDED!!!
REMARK  38 active torsions:
REMARK  status: ('A' for Active; 'I' for Inactive)
REMARK    1  A    between atoms: C2_2  and  O2_3 
REMARK    2  A    between atoms: C3_5  and  O3_6 
REMARK    3  A    between atoms: C4_8  and  O4_9 
REMARK    4  A    between atoms: O4_9  and  C1_15 
REMARK    5  A    between atoms: C5_10  and  C6_12 
REMARK    6  A    between atoms: S1_17  and  N2_19 
REMARK    7  A    between atoms: C2_18  and  N2_19 
REMARK    8  A    between atoms: S2_22  and  O6_34 
REMARK    9  A    between atoms: C3_23  and  O3_24 
REMARK   10  A    between atoms: C4_27  and  O4_28 
REMARK   11  A    between atoms: O4_28  and  C1_36 
REMARK   12  A    between atoms: C5_30  and  C6_33 
REMARK   13  A    between atoms: C6_33  and  O6_34 
REMARK   14  A    between atoms: C2_38  and  O2_39 
REMARK   15  A    between atoms: O2_39  and  S_52 
REMARK   16  A    between atoms: C3_41  and  O3_42 
REMARK   17  A    between atoms: C4_45  and  O4_46 
REMARK   18  A    between atoms: O4_46  and  C1_53 
REMARK   19  A    between atoms: C5_47  and  C6_49 
REMARK   20  A    between atoms: S1_55  and  N2_57 
REMARK   21  A    between atoms: C2_56  and  N2_57 
REMARK   22  A    between atoms: S2_60  and  O6_72 
REMARK   23  A    between atoms: C3_61  and  O3_62 
REMARK   24  A    between atoms: C4_65  and  O4_66 
REMARK   25  A    between atoms: O4_66  and  C1_74 
REMARK   26  A    between atoms: C5_68  and  C6_71 
REMARK   27  A    between atoms: C6_71  and  O6_72 
REMARK   28  A    between atoms: C2_75  and  O2_76 
REMARK   29  A    between atoms: C3_78  and  O3_79 
REMARK   30  A    between atoms: C4_81  and  O4_82 
REMARK   31  A    between atoms: O4_82  and  C1_88 
REMARK   32  A    between atoms: C5_83  and  C6_85 
REMARK   33  A    between atoms: C2_89  and  N2_90 
REMARK       I    between atoms: N2_90  and  C7_102 
REMARK   34  A    between atoms: C3_92  and  O3_93 
REMARK   35  A    between atoms: C4_95  and  O4_96 
REMARK   36  A    between atoms: C5_98  and  C6_100 
REMARK   37  A    between atoms: C6_100  and  O6_101 
REMARK   38  A    between atoms: O6_101  and  S_108 
ROOT
HETATM    1  C1  SGN C   4      14.239  10.418  47.417  1.00 25.95     0.287 C 
HETATM    2  C2  SGN C   4      13.475   9.469  46.488  1.00 24.33     0.182 C 
HETATM    3  C3  SGN C   4      12.719  10.229  45.402  1.00 24.72     0.178 C 
HETATM    4  C4  SGN C   4      11.827  11.293  46.024  1.00 24.11     0.186 C 
HETATM    5  C5  SGN C   4      12.673  12.125  46.987  1.00 25.01     0.181 C 
HETATM    6  O5  SGN C   4      13.299  11.319  47.968  1.00 24.61    -0.349 OA
ENDROOT
BRANCH   1   7
HETATM    7  O4  IDS C   3      15.325  11.092  46.731  1.00 24.52    -0.348 OA
BRANCH   7   8
HETATM    8  C4  IDS C   3      16.429  10.249  46.579  1.00 32.57     0.195 C 
HETATM    9  C3  IDS C   3      16.889  10.160  45.150  1.00 36.22     0.185 C 
HETATM   10  C2  IDS C   3      17.928  11.184  44.746  1.00 37.49     0.231 C 
HETATM   11  C1  IDS C   3      18.912  11.466  45.840  1.00 32.35     0.294 C 
HETATM   12  O5  IDS C   3      18.228  11.763  46.995  1.00 29.95    -0.340 OA
HETATM   13  C5  IDS C   3      17.567  10.655  47.475  1.00 31.73     0.257 C 
BRANCH   9  14
HETATM   14  O3  IDS C   3      17.439   8.909  44.947  1.00 35.64    -0.390 OA
ATOM     15  H3  IDS C   3      18.273   8.887  45.401  1.00  0.00     0.210 HD
ENDBRANCH   9  14
BRANCH  10  16
HETATM   16  O2  IDS C   3      17.327  12.357  44.324  1.00 41.30    -0.244 OA
BRANCH  16  17
HETATM   17  S   IDS C   3      17.713  12.919  43.016  1.00 46.67     0.252 S 
HETATM   18  O1S IDS C   3      16.550  13.058  42.176  1.00 45.84    -0.572 OA
HETATM   19  O2S IDS C   3      18.323  14.225  43.295  1.00 43.53    -0.572 OA
HETATM   20  O3S IDS C   3      18.671  12.065  42.357  1.00 50.85    -0.572 OA
ENDBRANCH  16  17
ENDBRANCH  10  16
BRANCH  11  21
HETATM   21  O4  SGN C   2      19.859  10.374  45.945  1.00 35.63    -0.348 OA
BRANCH  21  22
HETATM   22  C4  SGN C   2      21.183  10.803  46.239  1.00 34.14     0.186 C 
HETATM   23  C3  SGN C   2      22.112   9.618  45.995  1.00 36.01     0.178 C 
HETATM   24  C2  SGN C   2      23.595   9.994  45.975  1.00 38.29     0.182 C 
HETATM   25  C1  SGN C   2      23.849  11.237  45.122  1.00 40.25     0.287 C 
HETATM   26  O5  SGN C   2      22.985  12.276  45.536  1.00 40.44    -0.349 OA
HETATM   27  C5  SGN C   2      21.609  11.963  45.340  1.00 39.12     0.181 C 
BRANCH  23  28
HETATM   28  O3  SGN C   2      21.894   8.631  46.975  1.00 37.94    -0.391 OA
ATOM     29  H3  SGN C   2      22.212   7.795  46.655  1.00  0.00     0.210 HD
ENDBRANCH  23  28
BRANCH  24  30
HETATM   30  N2  SGN C   2      24.315   8.851  45.443  1.00 38.07    -0.289 N 
ATOM     31  H2  SGN C   2      24.331   8.705  44.434  1.00  0.00     0.175 HD
BRANCH  30  32
HETATM   32  S1  SGN C   2      25.086   7.815  46.387  1.00 51.36     0.205 S 
HETATM   33  O1S SGN C   2      24.087   6.933  46.982  1.00 53.59    -0.578 OA
HETATM   34  O2S SGN C   2      26.001   7.062  45.534  1.00 50.52    -0.578 OA
HETATM   35  O3S SGN C   2      25.775   8.628  47.384  1.00 54.39    -0.578 OA
ENDBRANCH  30  32
ENDBRANCH  24  30
BRANCH  25  36
HETATM   36  O4  BDP C   1      23.687  10.888  43.728  1.00 42.04    -0.348 OA
BRANCH  36  37
HETATM   37  C4  BDP C   1      24.501  11.637  42.893  1.00 48.48     0.195 C 
HETATM   38  C3  BDP C   1      24.375  13.081  43.253  1.00 51.01     0.181 C 
HETATM   39  C2  BDP C   1      25.454  13.905  42.640  1.00 53.01     0.173 C 
HETATM   40  C1  BDP C   1      26.797  13.305  42.873  1.00 54.14     0.203 C 
HETATM   41  O5  BDP C   1      26.792  12.014  42.386  1.00 54.15    -0.370 OA
HETATM   42  C5  BDP C   1      25.924  11.174  43.071  1.00 51.87     0.253 C 
BRANCH  38  43
HETATM   43  O3  BDP C   1      23.162  13.564  42.801  1.00 52.92    -0.390 OA
ATOM     44  H3  BDP C   1      22.533  13.479  43.508  1.00  0.00     0.210 HD
ENDBRANCH  38  43
BRANCH  39  45
HETATM   45  O2  BDP C   1      25.437  15.166  43.202  1.00 53.19    -0.391 OA
ATOM     46  H2  BDP C   1      24.795  15.174  43.902  1.00  0.00     0.210 HD
ENDBRANCH  39  45
BRANCH  42  47
HETATM   47  C6  BDP C   1      26.131   9.769  42.590  1.00 51.57     0.205 C 
HETATM   48  O6A BDP C   1      26.818   8.968  43.276  1.00 52.65    -0.646 OA
HETATM   49  O6B BDP C   1      25.626   9.394  41.498  1.00 51.09    -0.646 OA
ENDBRANCH  42  47
ENDBRANCH  36  37
ENDBRANCH  25  36
BRANCH  27  50
HETATM   50  C6  SGN C   2      20.761  13.212  45.563  1.00 42.92     0.227 C 
BRANCH  50  51
HETATM   51  O6  SGN C   2      21.193  14.254  44.715  1.00 46.75    -0.254 OA
BRANCH  51  52
HETATM   52  S2  SGN C   2      21.693  15.605  45.323  1.00 56.56     0.251 S 
HETATM   53  O4S SGN C   2      20.590  16.558  45.214  1.00 58.52    -0.572 OA
HETATM   54  O5S SGN C   2      22.068  15.369  46.712  1.00 53.95    -0.572 OA
HETATM   55  O6S SGN C   2      22.853  16.021  44.546  1.00 54.13    -0.572 OA
ENDBRANCH  51  52
ENDBRANCH  50  51
ENDBRANCH  27  50
ENDBRANCH  21  22
ENDBRANCH  11  21
BRANCH  13  56
HETATM   56  C6  IDS C   3      17.042  10.983  48.837  1.00 33.29     0.206 C 
HETATM   57  O6A IDS C   3      16.652  10.066  49.606  1.00 34.35    -0.646 OA
HETATM   58  O6B IDS C   3      16.980  12.184  49.212  1.00 34.80    -0.646 OA
ENDBRANCH  13  56
ENDBRANCH   7   8
ENDBRANCH   1   7
BRANCH   2  59
HETATM   59  N2  SGN C   4      14.361   8.496  45.877  1.00 24.47    -0.289 N 
ATOM     60  H2  SGN C   4      15.101   8.780  45.234  1.00  0.00     0.175 HD
BRANCH  59  61
HETATM   61  S1  SGN C   4      14.131   6.960  46.251  1.00 23.01     0.205 S 
HETATM   62  O1S SGN C   4      12.775   6.599  45.880  1.00 23.82    -0.578 OA
HETATM   63  O2S SGN C   4      15.096   6.167  45.497  1.00 21.15    -0.578 OA
HETATM   64  O3S SGN C   4      14.359   6.879  47.692  1.00 24.34    -0.578 OA
ENDBRANCH  59  61
ENDBRANCH   2  59
BRANCH   3  65
HETATM   65  O3  SGN C   4      11.940   9.323  44.645  1.00 24.01    -0.391 OA
ATOM     66  H3  SGN C   4      12.380   9.136  43.824  1.00  0.00     0.210 HD
ENDBRANCH   3  65
BRANCH   5  67
HETATM   67  C6  SGN C   4      11.849  13.184  47.709  1.00 29.42     0.227 C 
BRANCH  67  68
HETATM   68  O6  SGN C   4      10.672  12.617  48.239  1.00 33.38    -0.254 OA
BRANCH  68  69
HETATM   69  S2  SGN C   4       9.536  13.588  48.721  1.00 42.75     0.251 S 
HETATM   70  O4S SGN C   4      10.152  14.601  49.568  1.00 44.95    -0.572 OA
HETATM   71  O5S SGN C   4       8.947  14.140  47.509  1.00 42.87    -0.572 OA
HETATM   72  O6S SGN C   4       8.561  12.782  49.445  1.00 40.27    -0.572 OA
ENDBRANCH  68  69
ENDBRANCH  67  68
ENDBRANCH   5  67
BRANCH   4  73
HETATM   73  O4  SGN C   4      11.337  12.111  44.971  1.00 25.89    -0.348 OA
BRANCH  73  74
HETATM   74  C1  BDP C   5       9.911  12.017  44.770  1.00 28.36     0.292 C 
HETATM   75  C2  BDP C   5       9.508  12.802  43.558  1.00 31.13     0.204 C 
HETATM   76  C3  BDP C   5       8.029  12.805  43.397  1.00 33.85     0.183 C 
HETATM   77  C4  BDP C   5       7.467  11.423  43.441  1.00 31.81     0.195 C 
HETATM   78  C5  BDP C   5       8.072  10.653  44.594  1.00 27.14     0.257 C 
HETATM   79  O5  BDP C   5       9.467  10.717  44.587  1.00 24.75    -0.340 OA
BRANCH  75  80
HETATM   80  O2  BDP C   5       9.938  14.117  43.659  1.00 34.37    -0.388 OA
ATOM     81  H2  BDP C   5      10.880  14.173  43.550  1.00  0.00     0.210 HD
ENDBRANCH  75  80
BRANCH  76  82
HETATM   82  O3  BDP C   5       7.739  13.396  42.181  1.00 34.34    -0.390 OA
ATOM     83  H3  BDP C   5       7.362  14.251  42.357  1.00  0.00     0.210 HD
ENDBRANCH  76  82
BRANCH  77  84
HETATM   84  O4  BDP C   5       6.089  11.485  43.646  1.00 33.34    -0.348 OA
BRANCH  84  85
HETATM   85  C1  NGY C   6       5.303  11.137  42.482  1.00 35.33     0.286 C 
HETATM   86  C2  NGY C   6       4.165  12.097  42.375  1.00 39.33     0.170 C 
HETATM   87  C3  NGY C   6       3.255  11.879  43.533  1.00 39.13     0.177 C 
HETATM   88  C4  NGY C   6       2.770  10.472  43.493  1.00 37.06     0.180 C 
HETATM   89  C5  NGY C   6       3.966   9.582  43.573  1.00 32.98     0.181 C 
HETATM   90  O5  NGY C   6       4.798   9.851  42.506  1.00 32.46    -0.349 OA
BRANCH  86  91
HETATM   91  N2  NGY C   6       4.666  13.436  42.424  1.00 39.90    -0.349 N 
HETATM   92  C7  NGY C   6       4.557  14.291  41.285  1.00 44.73     0.214 C 
HETATM   93  O7  NGY C   6       4.035  13.882  40.257  1.00 46.19    -0.274 OA
HETATM   94  C8  NGY C   6       5.087  15.684  41.362  1.00 43.79     0.117 C 
ATOM     95  H2  NGY C   6       5.103  13.783  43.278  1.00  0.00     0.163 HD
ENDBRANCH  86  91
BRANCH  87  96
HETATM   96  O3  NGY C   6       2.191  12.753  43.477  1.00 44.02    -0.391 OA
ATOM     97  H3  NGY C   6       2.399  13.491  42.915  1.00  0.00     0.210 HD
ENDBRANCH  87  96
BRANCH  88  98
HETATM   98  O4  NGY C   6       1.939  10.244  44.567  1.00 37.39    -0.390 OA
ATOM     99  H4  NGY C   6       2.123   9.386  44.931  1.00  0.00     0.210 HD
ENDBRANCH  88  98
BRANCH  89 100
HETATM  100  C6  NGY C   6       3.574   8.137  43.588  1.00 31.91     0.227 C 
BRANCH 100 101
HETATM  101  O6  NGY C   6       2.440   7.903  42.835  1.00 36.15    -0.254 OA
BRANCH 101 102
HETATM  102  S   NGY C   6       1.456   6.888  43.276  1.00 34.85     0.251 S 
HETATM  103  O7A NGY C   6       0.250   6.985  42.496  1.00 33.41    -0.572 OA
HETATM  104  O8  NGY C   6       1.189   7.187  44.682  1.00 30.21    -0.572 OA
HETATM  105  O9  NGY C   6       2.030   5.573  43.117  1.00 38.01    -0.572 OA
ENDBRANCH 101 102
ENDBRANCH 100 101
ENDBRANCH  89 100
ENDBRANCH  84  85
ENDBRANCH  77  84
BRANCH  78 106
HETATM  106  C6  BDP C   5       7.625   9.223  44.639  1.00 29.31     0.206 C 
HETATM  107  O6A BDP C   5       8.015   8.421  43.753  1.00 32.10    -0.646 OA
HETATM  108  O6B BDP C   5       6.850   8.823  45.545  1.00 26.46    -0.646 OA
ENDBRANCH  78 106
ENDBRANCH  73  74
ENDBRANCH   4  73
TORSDOF 38
ENDMDL
MODEL 18
REMARK VINA RESULT:      -7.7      2.988     13.597
REMARK WARNING: 32 MAX_TORS EXCEEDED!!!
REMARK  38 active torsions:
REMARK  status: ('A' for Active; 'I' for Inactive)
REMARK    1  A    between atoms: C2_2  and  O2_3 
REMARK    2  A    between atoms: C3_5  and  O3_6 
REMARK    3  A    between atoms: C4_8  and  O4_9 
REMARK    4  A    between atoms: O4_9  and  C1_15 
REMARK    5  A    between atoms: C5_10  and  C6_12 
REMARK    6  A    between atoms: S1_17  and  N2_19 
REMARK    7  A    between atoms: C2_18  and  N2_19 
REMARK    8  A    between atoms: S2_22  and  O6_34 
REMARK    9  A    between atoms: C3_23  and  O3_24 
REMARK   10  A    between atoms: C4_27  and  O4_28 
REMARK   11  A    between atoms: O4_28  and  C1_36 
REMARK   12  A    between atoms: C5_30  and  C6_33 
REMARK   13  A    between atoms: C6_33  and  O6_34 
REMARK   14  A    between atoms: C2_38  and  O2_39 
REMARK   15  A    between atoms: O2_39  and  S_52 
REMARK   16  A    between atoms: C3_41  and  O3_42 
REMARK   17  A    between atoms: C4_45  and  O4_46 
REMARK   18  A    between atoms: O4_46  and  C1_53 
REMARK   19  A    between atoms: C5_47  and  C6_49 
REMARK   20  A    between atoms: S1_55  and  N2_57 
REMARK   21  A    between atoms: C2_56  and  N2_57 
REMARK   22  A    between atoms: S2_60  and  O6_72 
REMARK   23  A    between atoms: C3_61  and  O3_62 
REMARK   24  A    between atoms: C4_65  and  O4_66 
REMARK   25  A    between atoms: O4_66  and  C1_74 
REMARK   26  A    between atoms: C5_68  and  C6_71 
REMARK   27  A    between atoms: C6_71  and  O6_72 
REMARK   28  A    between atoms: C2_75  and  O2_76 
REMARK   29  A    between atoms: C3_78  and  O3_79 
REMARK   30  A    between atoms: C4_81  and  O4_82 
REMARK   31  A    between atoms: O4_82  and  C1_88 
REMARK   32  A    between atoms: C5_83  and  C6_85 
REMARK   33  A    between atoms: C2_89  and  N2_90 
REMARK       I    between atoms: N2_90  and  C7_102 
REMARK   34  A    between atoms: C3_92  and  O3_93 
REMARK   35  A    between atoms: C4_95  and  O4_96 
REMARK   36  A    between atoms: C5_98  and  C6_100 
REMARK   37  A    between atoms: C6_100  and  O6_101 
REMARK   38  A    between atoms: O6_101  and  S_108 
ROOT
HETATM    1  C1  SGN C   4       6.099  11.683  42.622  1.00 25.95     0.287 C 
HETATM    2  C2  SGN C   4       4.949  12.695  42.639  1.00 24.33     0.182 C 
HETATM    3  C3  SGN C   4       3.874  12.310  43.652  1.00 24.72     0.178 C 
HETATM    4  C4  SGN C   4       3.403  10.885  43.407  1.00 24.11     0.186 C 
HETATM    5  C5  SGN C   4       4.633   9.980  43.329  1.00 25.01     0.181 C 
HETATM    6  O5  SGN C   4       5.543  10.415  42.336  1.00 24.61    -0.349 OA
ENDROOT
BRANCH   1   7
HETATM    7  O4  IDS C   3       6.855  11.696  43.860  1.00 24.52    -0.348 OA
BRANCH   7   8
HETATM    8  C4  IDS C   3       8.230  11.673  43.614  1.00 32.57     0.195 C 
HETATM    9  C3  IDS C   3       8.865  13.025  43.781  1.00 36.22     0.185 C 
HETATM   10  C2  IDS C   3       9.370  13.330  45.175  1.00 37.49     0.231 C 
HETATM   11  C1  IDS C   3       9.964  12.129  45.845  1.00 32.35     0.294 C 
HETATM   12  O5  IDS C   3       9.074  11.084  45.769  1.00 29.95    -0.340 OA
HETATM   13  C5  IDS C   3       8.930  10.652  44.471  1.00 31.73     0.257 C 
BRANCH   9  14
HETATM   14  O3  IDS C   3       9.944  13.107  42.922  1.00 35.64    -0.390 OA
ATOM     15  H3  IDS C   3      10.579  13.693  43.317  1.00  0.00     0.210 HD
ENDBRANCH   9  14
BRANCH  10  16
HETATM   16  O2  IDS C   3       8.364  13.870  45.957  1.00 41.30    -0.244 OA
BRANCH  16  17
HETATM   17  S   IDS C   3       8.490  15.270  46.403  1.00 46.67     0.252 S 
HETATM   18  O1S IDS C   3       9.827  15.748  46.157  1.00 45.84    -0.572 OA
HETATM   19  O2S IDS C   3       7.504  16.037  45.629  1.00 43.53    -0.572 OA
HETATM   20  O3S IDS C   3       8.200  15.386  47.811  1.00 50.85    -0.572 OA
ENDBRANCH  16  17
ENDBRANCH  10  16
BRANCH  11  21
HETATM   21  O4  SGN C   2      11.280  11.860  45.302  1.00 35.63    -0.348 OA
BRANCH  21  22
HETATM   22  C4  SGN C   2      12.202  11.375  46.270  1.00 34.14     0.186 C 
HETATM   23  C3  SGN C   2      12.666   9.998  45.807  1.00 36.01     0.178 C 
HETATM   24  C2  SGN C   2      13.880   9.468  46.576  1.00 38.29     0.182 C 
HETATM   25  C1  SGN C   2      14.966  10.535  46.715  1.00 40.25     0.287 C 
HETATM   26  O5  SGN C   2      14.401  11.715  47.250  1.00 40.44    -0.349 OA
HETATM   27  C5  SGN C   2      13.417  12.293  46.397  1.00 39.12     0.181 C 
BRANCH  23  28
HETATM   28  O3  SGN C   2      11.608   9.076  45.915  1.00 37.94    -0.391 OA
ATOM     29  H3  SGN C   2      10.833   9.438  45.502  1.00  0.00     0.210 HD
ENDBRANCH  23  28
BRANCH  24  30
HETATM   30  N2  SGN C   2      14.380   8.321  45.841  1.00 38.07    -0.289 N 
ATOM     31  H2  SGN C   2      14.885   8.476  44.968  1.00  0.00     0.175 HD
BRANCH  30  32
HETATM   32  S1  SGN C   2      14.166   6.821  46.354  1.00 51.36     0.205 S 
HETATM   33  O1S SGN C   2      15.117   5.972  45.645  1.00 53.59    -0.578 OA
HETATM   34  O2S SGN C   2      14.438   6.819  47.789  1.00 50.52    -0.578 OA
HETATM   35  O3S SGN C   2      12.781   6.490  46.037  1.00 54.39    -0.578 OA
ENDBRANCH  30  32
ENDBRANCH  24  30
BRANCH  25  36
HETATM   36  O4  BDP C   1      15.589  10.739  45.426  1.00 42.04    -0.348 OA
BRANCH  36  37
HETATM   37  C4  BDP C   1      16.805  11.397  45.519  1.00 48.48     0.195 C 
HETATM   38  C3  BDP C   1      17.903  10.388  45.591  1.00 51.01     0.181 C 
HETATM   39  C2  BDP C   1      19.240  11.001  45.355  1.00 53.01     0.173 C 
HETATM   40  C1  BDP C   1      19.240  11.856  44.136  1.00 54.14     0.203 C 
HETATM   41  O5  BDP C   1      18.250  12.808  44.268  1.00 54.15    -0.370 OA
HETATM   42  C5  BDP C   1      16.971  12.268  44.301  1.00 51.87     0.253 C 
BRANCH  38  43
HETATM   43  O3  BDP C   1      17.916   9.810  46.846  1.00 52.92    -0.390 OA
ATOM     44  H3  BDP C   1      17.711   8.887  46.744  1.00  0.00     0.210 HD
ENDBRANCH  38  43
BRANCH  39  45
HETATM   45  O2  BDP C   1      20.175   9.999  45.183  1.00 53.19    -0.391 OA
ATOM     46  H2  BDP C   1      19.885   9.233  45.664  1.00  0.00     0.210 HD
ENDBRANCH  39  45
BRANCH  42  47
HETATM   47  C6  BDP C   1      15.973  13.386  44.257  1.00 51.57     0.205 C 
HETATM   48  O6A BDP C   1      15.071  13.386  43.381  1.00 52.65    -0.646 OA
HETATM   49  O6B BDP C   1      16.043  14.328  45.092  1.00 51.09    -0.646 OA
ENDBRANCH  42  47
ENDBRANCH  36  37
ENDBRANCH  25  36
BRANCH  27  50
HETATM   50  C6  SGN C   2      13.044  13.681  46.909  1.00 42.92     0.227 C 
BRANCH  50  51
HETATM   51  O6  SGN C   2      13.418  13.819  48.262  1.00 46.75    -0.254 OA
BRANCH  51  52
HETATM   52  S2  SGN C   2      12.340  13.713  49.391  1.00 56.56     0.251 S 
HETATM   53  O4S SGN C   2      12.373  12.338  49.887  1.00 58.52    -0.572 OA
HETATM   54  O5S SGN C   2      12.678  14.673  50.435  1.00 53.95    -0.572 OA
HETATM   55  O6S SGN C   2      11.056  14.045  48.789  1.00 54.13    -0.572 OA
ENDBRANCH  51  52
ENDBRANCH  50  51
ENDBRANCH  27  50
ENDBRANCH  21  22
ENDBRANCH  11  21
BRANCH  13  56
HETATM   56  C6  IDS C   3       8.138   9.383  44.489  1.00 33.29     0.206 C 
HETATM   57  O6A IDS C   3       7.300   9.169  45.402  1.00 34.35    -0.646 OA
HETATM   58  O6B IDS C   3       8.321   8.519  43.590  1.00 34.80    -0.646 OA
ENDBRANCH  13  56
ENDBRANCH   7   8
ENDBRANCH   1   7
BRANCH   2  59
HETATM   59  N2  SGN C   4       5.426  14.037  42.920  1.00 24.47    -0.289 N 
ATOM     60  H2  SGN C   4       5.958  14.246  43.765  1.00  0.00     0.175 HD
BRANCH  59  61
HETATM   61  S1  SGN C   4       5.085  15.173  41.850  1.00 23.01     0.205 S 
HETATM   62  O1S SGN C   4       3.963  15.946  42.349  1.00 23.82    -0.578 OA
HETATM   63  O2S SGN C   4       6.265  16.020  41.706  1.00 21.15    -0.578 OA
HETATM   64  O3S SGN C   4       4.769  14.456  40.617  1.00 24.34    -0.578 OA
ENDBRANCH  59  61
ENDBRANCH   2  59
BRANCH   3  65
HETATM   65  O3  SGN C   4       2.785  13.207  43.549  1.00 24.01    -0.391 OA
ATOM     66  H3  SGN C   4       3.050  13.973  43.054  1.00  0.00     0.210 HD
ENDBRANCH   3  65
BRANCH   5  67
HETATM   67  C6  SGN C   4       4.264   8.534  43.023  1.00 29.42     0.227 C 
BRANCH  67  68
HETATM   68  O6  SGN C   4       3.051   8.474  42.306  1.00 33.38    -0.254 OA
BRANCH  68  69
HETATM   69  S2  SGN C   4       3.110   8.075  40.789  1.00 42.75     0.251 S 
HETATM   70  O4S SGN C   4       4.011   6.937  40.667  1.00 44.95    -0.572 OA
HETATM   71  O5S SGN C   4       1.740   7.761  40.409  1.00 42.87    -0.572 OA
HETATM   72  O6S SGN C   4       3.591   9.240  40.057  1.00 40.27    -0.572 OA
ENDBRANCH  68  69
ENDBRANCH  67  68
ENDBRANCH   5  67
BRANCH   4  73
HETATM   73  O4  SGN C   4       2.588  10.508  44.508  1.00 25.89    -0.348 OA
BRANCH  73  74
HETATM   74  C1  BDP C   5       2.967  11.124  45.757  1.00 28.36     0.292 C 
HETATM   75  C2  BDP C   5       1.748  11.418  46.578  1.00 31.13     0.204 C 
HETATM   76  C3  BDP C   5       2.112  12.149  47.822  1.00 33.85     0.183 C 
HETATM   77  C4  BDP C   5       3.198  11.453  48.573  1.00 31.81     0.195 C 
HETATM   78  C5  BDP C   5       4.300  11.037  47.625  1.00 27.14     0.257 C 
HETATM   79  O5  BDP C   5       3.803  10.331  46.527  1.00 24.75    -0.340 OA
BRANCH  75  80
HETATM   80  O2  BDP C   5       0.849  12.195  45.863  1.00 34.37    -0.388 OA
ATOM     81  H2  BDP C   5       0.164  12.527  46.432  1.00  0.00     0.210 HD
ENDBRANCH  75  80
BRANCH  76  82
HETATM   82  O3  BDP C   5       0.976  12.238  48.606  1.00 34.34    -0.390 OA
ATOM     83  H3  BDP C   5       1.009  11.535  49.244  1.00  0.00     0.210 HD
ENDBRANCH  76  82
BRANCH  77  84
HETATM   84  O4  BDP C   5       3.750  12.324  49.512  1.00 33.34    -0.348 OA
BRANCH  84  85
HETATM   85  C1  NGY C   6       4.066  11.702  50.779  1.00 35.33     0.286 C 
HETATM   86  C2  NGY C   6       3.059  12.143  51.789  1.00 39.33     0.170 C 
HETATM   87  C3  NGY C   6       3.235  13.603  52.022  1.00 39.13     0.177 C 
HETATM   88  C4  NGY C   6       4.619  13.838  52.515  1.00 37.06     0.180 C 
HETATM   89  C5  NGY C   6       5.560  13.343  51.466  1.00 32.98     0.181 C 
HETATM   90  O5  NGY C   6       5.330  11.999  51.254  1.00 32.46    -0.349 OA
BRANCH  86  91
HETATM   91  N2  NGY C   6       1.742  11.910  51.280  1.00 39.90    -0.349 N 
HETATM   92  C7  NGY C   6       0.724  11.375  52.128  1.00 44.73     0.214 C 
HETATM   93  O7  NGY C   6       0.972  11.111  53.296  1.00 46.19    -0.274 OA
HETATM   94  C8  NGY C   6      -0.641  11.141  51.572  1.00 43.79     0.117 C 
ATOM     95  H2  NGY C   6       1.529  12.127  50.307  1.00  0.00     0.163 HD
ENDBRANCH  86  91
BRANCH  87  96
HETATM   96  O3  NGY C   6       2.315  14.054  52.945  1.00 44.02    -0.391 OA
ATOM     97  H3  NGY C   6       1.436  13.810  52.681  1.00  0.00     0.210 HD
ENDBRANCH  87  96
BRANCH  88  98
HETATM   98  O4  NGY C   6       4.809  15.185  52.721  1.00 37.39    -0.390 OA
ATOM     99  H4  NGY C   6       4.203  15.492  53.384  1.00  0.00     0.210 HD
ENDBRANCH  88  98
BRANCH  89 100
HETATM  100  C6  NGY C   6       6.987  13.581  51.852  1.00 31.91     0.227 C 
BRANCH 100 101
HETATM  101  O6  NGY C   6       7.598  14.503  51.023  1.00 36.15    -0.254 OA
BRANCH 101 102
HETATM  102  S   NGY C   6       8.082  15.788  51.577  1.00 34.85     0.251 S 
HETATM  103  O7A NGY C   6       7.720  15.905  52.966  1.00 33.41    -0.572 OA
HETATM  104  O8  NGY C   6       7.430  16.828  50.783  1.00 30.21    -0.572 OA
HETATM  105  O9  NGY C   6       9.519  15.847  51.446  1.00 38.01    -0.572 OA
ENDBRANCH 101 102
ENDBRANCH 100 101
ENDBRANCH  89 100
ENDBRANCH  84  85
ENDBRANCH  77  84
BRANCH  78 106
HETATM  106  C6  BDP C   5       5.381  10.244  48.297  1.00 29.31     0.206 C 
HETATM  107  O6A BDP C   5       5.122   9.103  48.753  1.00 32.10    -0.646 OA
HETATM  108  O6B BDP C   5       6.538  10.719  48.425  1.00 26.46    -0.646 OA
ENDBRANCH  78 106
ENDBRANCH  73  74
ENDBRANCH   4  73
TORSDOF 38
ENDMDL
MODEL 19
REMARK VINA RESULT:      -7.6      3.194     13.893
REMARK WARNING: 32 MAX_TORS EXCEEDED!!!
REMARK  38 active torsions:
REMARK  status: ('A' for Active; 'I' for Inactive)
REMARK    1  A    between atoms: C2_2  and  O2_3 
REMARK    2  A    between atoms: C3_5  and  O3_6 
REMARK    3  A    between atoms: C4_8  and  O4_9 
REMARK    4  A    between atoms: O4_9  and  C1_15 
REMARK    5  A    between atoms: C5_10  and  C6_12 
REMARK    6  A    between atoms: S1_17  and  N2_19 
REMARK    7  A    between atoms: C2_18  and  N2_19 
REMARK    8  A    between atoms: S2_22  and  O6_34 
REMARK    9  A    between atoms: C3_23  and  O3_24 
REMARK   10  A    between atoms: C4_27  and  O4_28 
REMARK   11  A    between atoms: O4_28  and  C1_36 
REMARK   12  A    between atoms: C5_30  and  C6_33 
REMARK   13  A    between atoms: C6_33  and  O6_34 
REMARK   14  A    between atoms: C2_38  and  O2_39 
REMARK   15  A    between atoms: O2_39  and  S_52 
REMARK   16  A    between atoms: C3_41  and  O3_42 
REMARK   17  A    between atoms: C4_45  and  O4_46 
REMARK   18  A    between atoms: O4_46  and  C1_53 
REMARK   19  A    between atoms: C5_47  and  C6_49 
REMARK   20  A    between atoms: S1_55  and  N2_57 
REMARK   21  A    between atoms: C2_56  and  N2_57 
REMARK   22  A    between atoms: S2_60  and  O6_72 
REMARK   23  A    between atoms: C3_61  and  O3_62 
REMARK   24  A    between atoms: C4_65  and  O4_66 
REMARK   25  A    between atoms: O4_66  and  C1_74 
REMARK   26  A    between atoms: C5_68  and  C6_71 
REMARK   27  A    between atoms: C6_71  and  O6_72 
REMARK   28  A    between atoms: C2_75  and  O2_76 
REMARK   29  A    between atoms: C3_78  and  O3_79 
REMARK   30  A    between atoms: C4_81  and  O4_82 
REMARK   31  A    between atoms: O4_82  and  C1_88 
REMARK   32  A    between atoms: C5_83  and  C6_85 
REMARK   33  A    between atoms: C2_89  and  N2_90 
REMARK       I    between atoms: N2_90  and  C7_102 
REMARK   34  A    between atoms: C3_92  and  O3_93 
REMARK   35  A    between atoms: C4_95  and  O4_96 
REMARK   36  A    between atoms: C5_98  and  C6_100 
REMARK   37  A    between atoms: C6_100  and  O6_101 
REMARK   38  A    between atoms: O6_101  and  S_108 
ROOT
HETATM    1  C1  SGN C   4       5.582  11.036  42.913  1.00 25.95     0.287 C 
HETATM    2  C2  SGN C   4       4.304  11.875  42.823  1.00 24.33     0.182 C 
HETATM    3  C3  SGN C   4       3.344  11.567  43.969  1.00 24.72     0.178 C 
HETATM    4  C4  SGN C   4       3.066  10.074  44.040  1.00 24.11     0.186 C 
HETATM    5  C5  SGN C   4       4.405   9.336  44.043  1.00 25.01     0.181 C 
HETATM    6  O5  SGN C   4       5.195   9.675  42.919  1.00 24.61    -0.349 OA
ENDROOT
BRANCH   1   7
HETATM    7  O4  IDS C   3       6.388  11.394  44.064  1.00 24.52    -0.348 OA
BRANCH   7   8
HETATM    8  C4  IDS C   3       7.724  11.589  43.706  1.00 32.57     0.195 C 
HETATM    9  C3  IDS C   3       8.144  13.028  43.818  1.00 36.22     0.185 C 
HETATM   10  C2  IDS C   3       8.703  13.431  45.165  1.00 37.49     0.231 C 
HETATM   11  C1  IDS C   3       9.537  12.353  45.786  1.00 32.35     0.294 C 
HETATM   12  O5  IDS C   3       8.824  11.177  45.786  1.00 29.95    -0.340 OA
HETATM   13  C5  IDS C   3       8.648  10.708  44.504  1.00 31.73     0.257 C 
BRANCH   9  14
HETATM   14  O3  IDS C   3       9.121  13.271  42.873  1.00 35.64    -0.390 OA
ATOM     15  H3  IDS C   3       9.683  13.957  43.213  1.00  0.00     0.210 HD
ENDBRANCH   9  14
BRANCH  10  16
HETATM   16  O2  IDS C   3       7.690  13.814  46.026  1.00 41.30    -0.244 OA
BRANCH  16  17
HETATM   17  S   IDS C   3       7.947  14.912  46.977  1.00 46.67     0.252 S 
HETATM   18  O1S IDS C   3       9.034  15.730  46.503  1.00 45.84    -0.572 OA
HETATM   19  O2S IDS C   3       6.700  15.684  47.059  1.00 43.53    -0.572 OA
HETATM   20  O3S IDS C   3       8.283  14.391  48.280  1.00 50.85    -0.572 OA
ENDBRANCH  16  17
ENDBRANCH  10  16
BRANCH  11  21
HETATM   21  O4  SGN C   2      10.831  12.292  45.136  1.00 35.63    -0.348 OA
BRANCH  21  22
HETATM   22  C4  SGN C   2      11.909  12.100  46.043  1.00 34.14     0.186 C 
HETATM   23  C3  SGN C   2      12.474  10.706  45.791  1.00 36.01     0.178 C 
HETATM   24  C2  SGN C   2      13.822  10.456  46.473  1.00 38.29     0.182 C 
HETATM   25  C1  SGN C   2      14.785  11.624  46.257  1.00 40.25     0.287 C 
HETATM   26  O5  SGN C   2      14.152  12.832  46.630  1.00 40.44    -0.349 OA
HETATM   27  C5  SGN C   2      13.015  13.132  45.826  1.00 39.12     0.181 C 
BRANCH  23  28
HETATM   28  O3  SGN C   2      11.550   9.732  46.216  1.00 37.94    -0.391 OA
ATOM     29  H3  SGN C   2      10.695   9.930  45.852  1.00  0.00     0.210 HD
ENDBRANCH  23  28
BRANCH  24  30
HETATM   30  N2  SGN C   2      14.364   9.234  45.908  1.00 38.07    -0.289 N 
ATOM     31  H2  SGN C   2      14.788   9.266  44.980  1.00  0.00     0.175 HD
BRANCH  30  32
HETATM   32  S1  SGN C   2      14.319   7.841  46.690  1.00 51.36     0.205 S 
HETATM   33  O1S SGN C   2      12.916   7.489  46.886  1.00 53.59    -0.578 OA
HETATM   34  O2S SGN C   2      14.987   6.856  45.846  1.00 50.52    -0.578 OA
HETATM   35  O3S SGN C   2      15.015   8.075  47.952  1.00 54.39    -0.578 OA
ENDBRANCH  30  32
ENDBRANCH  24  30
BRANCH  25  36
HETATM   36  O4  BDP C   1      15.225  11.618  44.880  1.00 42.04    -0.348 OA
BRANCH  36  37
HETATM   37  C4  BDP C   1      16.484  12.178  44.720  1.00 48.48     0.195 C 
HETATM   38  C3  BDP C   1      16.481  13.559  45.285  1.00 51.01     0.181 C 
HETATM   39  C2  BDP C   1      17.860  14.094  45.457  1.00 53.01     0.173 C 
HETATM   40  C1  BDP C   1      18.739  13.119  46.161  1.00 54.14     0.203 C 
HETATM   41  O5  BDP C   1      18.729  11.932  45.459  1.00 54.15    -0.370 OA
HETATM   42  C5  BDP C   1      17.485  11.315  45.445  1.00 51.87     0.253 C 
BRANCH  38  43
HETATM   43  O3  BDP C   1      15.800  14.406  44.432  1.00 52.92    -0.390 OA
ATOM     44  H3  BDP C   1      15.074  14.784  44.914  1.00  0.00     0.210 HD
ENDBRANCH  38  43
BRANCH  39  45
HETATM   45  O2  BDP C   1      17.808  15.253  46.207  1.00 53.19    -0.391 OA
ATOM     46  H2  BDP C   1      17.656  15.017  47.114  1.00  0.00     0.210 HD
ENDBRANCH  39  45
BRANCH  42  47
HETATM   47  C6  BDP C   1      17.625   9.958  44.823  1.00 51.57     0.205 C 
HETATM   48  O6A BDP C   1      17.372   8.929  45.502  1.00 52.65    -0.646 OA
HETATM   49  O6B BDP C   1      18.004   9.848  43.626  1.00 51.09    -0.646 OA
ENDBRANCH  42  47
ENDBRANCH  36  37
ENDBRANCH  25  36
BRANCH  27  50
HETATM   50  C6  SGN C   2      12.544  14.555  46.112  1.00 42.92     0.227 C 
BRANCH  50  51
HETATM   51  O6  SGN C   2      13.203  15.468  45.263  1.00 46.75    -0.254 OA
BRANCH  51  52
HETATM   52  S2  SGN C   2      12.548  15.895  43.908  1.00 56.56     0.251 S 
HETATM   53  O4S SGN C   2      11.202  15.325  43.885  1.00 58.52    -0.572 OA
HETATM   54  O5S SGN C   2      12.520  17.352  43.856  1.00 53.95    -0.572 OA
HETATM   55  O6S SGN C   2      13.384  15.362  42.841  1.00 54.13    -0.572 OA
ENDBRANCH  51  52
ENDBRANCH  50  51
ENDBRANCH  27  50
ENDBRANCH  21  22
ENDBRANCH  11  21
BRANCH  13  56
HETATM   56  C6  IDS C   3       8.076   9.328  44.590  1.00 33.29     0.206 C 
HETATM   57  O6A IDS C   3       7.353   8.998  45.565  1.00 34.35    -0.646 OA
HETATM   58  O6B IDS C   3       8.330   8.488  43.685  1.00 34.80    -0.646 OA
ENDBRANCH  13  56
ENDBRANCH   7   8
ENDBRANCH   1   7
BRANCH   2  59
HETATM   59  N2  SGN C   4       4.601  13.296  42.803  1.00 24.47    -0.289 N 
ATOM     60  H2  SGN C   4       4.856  13.798  43.655  1.00  0.00     0.175 HD
BRANCH  59  61
HETATM   61  S1  SGN C   4       4.513  14.042  41.394  1.00 23.01     0.205 S 
HETATM   62  O1S SGN C   4       4.619  13.045  40.344  1.00 23.82    -0.578 OA
HETATM   63  O2S SGN C   4       3.222  14.719  41.326  1.00 21.15    -0.578 OA
HETATM   64  O3S SGN C   4       5.629  14.985  41.388  1.00 24.34    -0.578 OA
ENDBRANCH  59  61
ENDBRANCH   2  59
BRANCH   3  65
HETATM   65  O3  SGN C   4       2.136  12.279  43.779  1.00 24.01    -0.391 OA
ATOM     66  H3  SGN C   4       2.244  13.174  44.079  1.00  0.00     0.210 HD
ENDBRANCH   3  65
BRANCH   5  67
HETATM   67  C6  SGN C   4       4.228   7.823  44.050  1.00 29.42     0.227 C 
BRANCH  67  68
HETATM   68  O6  SGN C   4       2.860   7.485  44.002  1.00 33.38    -0.254 OA
BRANCH  68  69
HETATM   69  S2  SGN C   4       2.304   6.846  42.681  1.00 42.75     0.251 S 
HETATM   70  O4S SGN C   4       1.914   5.475  42.984  1.00 44.95    -0.572 OA
HETATM   71  O5S SGN C   4       1.182   7.682  42.278  1.00 42.87    -0.572 OA
HETATM   72  O6S SGN C   4       3.372   6.909  41.691  1.00 40.27    -0.572 OA
ENDBRANCH  68  69
ENDBRANCH  67  68
ENDBRANCH   5  67
BRANCH   4  73
HETATM   73  O4  SGN C   4       2.367   9.825  45.250  1.00 25.89    -0.348 OA
BRANCH  73  74
HETATM   74  C1  BDP C   5       2.815  10.627  46.363  1.00 28.36     0.292 C 
HETATM   75  C2  BDP C   5       1.652  11.006  47.229  1.00 31.13     0.204 C 
HETATM   76  C3  BDP C   5       2.080  11.922  48.321  1.00 33.85     0.183 C 
HETATM   77  C4  BDP C   5       3.245  11.374  49.074  1.00 31.81     0.195 C 
HETATM   78  C5  BDP C   5       4.288  10.853  48.110  1.00 27.14     0.257 C 
HETATM   79  O5  BDP C   5       3.738   9.980  47.169  1.00 24.75    -0.340 OA
BRANCH  75  80
HETATM   80  O2  BDP C   5       0.671  11.644  46.484  1.00 34.37    -0.388 OA
ATOM     81  H2  BDP C   5       0.666  12.577  46.663  1.00  0.00     0.210 HD
ENDBRANCH  75  80
BRANCH  76  82
HETATM   82  O3  BDP C   5       1.004  12.094  49.172  1.00 34.34    -0.390 OA
ATOM     83  H3  BDP C   5       1.200  11.636  49.982  1.00  0.00     0.210 HD
ENDBRANCH  76  82
BRANCH  77  84
HETATM   84  O4  BDP C   5       3.832  12.388  49.830  1.00 33.34    -0.348 OA
BRANCH  84  85
HETATM   85  C1  NGY C   6       4.403  11.937  51.080  1.00 35.33     0.286 C 
HETATM   86  C2  NGY C   6       3.366  12.064  52.147  1.00 39.33     0.170 C 
HETATM   87  C3  NGY C   6       3.079  13.509  52.355  1.00 39.13     0.177 C 
HETATM   88  C4  NGY C   6       4.341  14.188  52.757  1.00 37.06     0.180 C 
HETATM   89  C5  NGY C   6       5.329  13.988  51.655  1.00 32.98     0.181 C 
HETATM   90  O5  NGY C   6       5.529  12.636  51.472  1.00 32.46    -0.349 OA
BRANCH  86  91
HETATM   91  N2  NGY C   6       2.167  11.408  51.725  1.00 39.90    -0.349 N 
HETATM   92  C7  NGY C   6       1.818  10.128  52.256  1.00 44.73     0.214 C 
HETATM   93  O7  NGY C   6       2.545   9.583  53.075  1.00 46.19    -0.274 OA
HETATM   94  C8  NGY C   6       0.561   9.466  51.799  1.00 43.79     0.117 C 
ATOM     95  H2  NGY C   6       1.557  11.857  51.042  1.00  0.00     0.163 HD
ENDBRANCH  86  91
BRANCH  87  96
HETATM   96  O3  NGY C   6       2.117  13.671  53.329  1.00 44.02    -0.391 OA
ATOM     97  H3  NGY C   6       1.319  13.219  53.084  1.00  0.00     0.210 HD
ENDBRANCH  87  96
BRANCH  88  98
HETATM   98  O4  NGY C   6       4.101  15.532  52.937  1.00 37.39    -0.390 OA
ATOM     99  H4  NGY C   6       3.466  15.649  53.634  1.00  0.00     0.210 HD
ENDBRANCH  88  98
BRANCH  89 100
HETATM  100  C6  NGY C   6       6.624  14.681  51.948  1.00 31.91     0.227 C 
BRANCH 100 101
HETATM  101  O6  NGY C   6       6.733  15.028  53.281  1.00 36.15    -0.254 OA
BRANCH 101 102
HETATM  102  S   NGY C   6       7.062  16.421  53.657  1.00 34.85     0.251 S 
HETATM  103  O7A NGY C   6       6.372  16.792  54.865  1.00 33.41    -0.572 OA
HETATM  104  O8  NGY C   6       6.618  17.245  52.534  1.00 30.21    -0.572 OA
HETATM  105  O9  NGY C   6       8.487  16.531  53.862  1.00 38.01    -0.572 OA
ENDBRANCH 101 102
ENDBRANCH 100 101
ENDBRANCH  89 100
ENDBRANCH  84  85
ENDBRANCH  77  84
BRANCH  78 106
HETATM  106  C6  BDP C   5       5.446  10.198  48.801  1.00 29.31     0.206 C 
HETATM  107  O6A BDP C   5       6.580  10.738  48.762  1.00 32.10    -0.646 OA
HETATM  108  O6B BDP C   5       5.297   9.103  49.402  1.00 26.46    -0.646 OA
ENDBRANCH  78 106
ENDBRANCH  73  74
ENDBRANCH   4  73
TORSDOF 38
ENDMDL
MODEL 20
REMARK VINA RESULT:      -7.5      3.696     15.855
REMARK WARNING: 32 MAX_TORS EXCEEDED!!!
REMARK  38 active torsions:
REMARK  status: ('A' for Active; 'I' for Inactive)
REMARK    1  A    between atoms: C2_2  and  O2_3 
REMARK    2  A    between atoms: C3_5  and  O3_6 
REMARK    3  A    between atoms: C4_8  and  O4_9 
REMARK    4  A    between atoms: O4_9  and  C1_15 
REMARK    5  A    between atoms: C5_10  and  C6_12 
REMARK    6  A    between atoms: S1_17  and  N2_19 
REMARK    7  A    between atoms: C2_18  and  N2_19 
REMARK    8  A    between atoms: S2_22  and  O6_34 
REMARK    9  A    between atoms: C3_23  and  O3_24 
REMARK   10  A    between atoms: C4_27  and  O4_28 
REMARK   11  A    between atoms: O4_28  and  C1_36 
REMARK   12  A    between atoms: C5_30  and  C6_33 
REMARK   13  A    between atoms: C6_33  and  O6_34 
REMARK   14  A    between atoms: C2_38  and  O2_39 
REMARK   15  A    between atoms: O2_39  and  S_52 
REMARK   16  A    between atoms: C3_41  and  O3_42 
REMARK   17  A    between atoms: C4_45  and  O4_46 
REMARK   18  A    between atoms: O4_46  and  C1_53 
REMARK   19  A    between atoms: C5_47  and  C6_49 
REMARK   20  A    between atoms: S1_55  and  N2_57 
REMARK   21  A    between atoms: C2_56  and  N2_57 
REMARK   22  A    between atoms: S2_60  and  O6_72 
REMARK   23  A    between atoms: C3_61  and  O3_62 
REMARK   24  A    between atoms: C4_65  and  O4_66 
REMARK   25  A    between atoms: O4_66  and  C1_74 
REMARK   26  A    between atoms: C5_68  and  C6_71 
REMARK   27  A    between atoms: C6_71  and  O6_72 
REMARK   28  A    between atoms: C2_75  and  O2_76 
REMARK   29  A    between atoms: C3_78  and  O3_79 
REMARK   30  A    between atoms: C4_81  and  O4_82 
REMARK   31  A    between atoms: O4_82  and  C1_88 
REMARK   32  A    between atoms: C5_83  and  C6_85 
REMARK   33  A    between atoms: C2_89  and  N2_90 
REMARK       I    between atoms: N2_90  and  C7_102 
REMARK   34  A    between atoms: C3_92  and  O3_93 
REMARK   35  A    between atoms: C4_95  and  O4_96 
REMARK   36  A    between atoms: C5_98  and  C6_100 
REMARK   37  A    between atoms: C6_100  and  O6_101 
REMARK   38  A    between atoms: O6_101  and  S_108 
ROOT
HETATM    1  C1  SGN C   4       7.353  11.119  44.895  1.00 25.95     0.287 C 
HETATM    2  C2  SGN C   4       6.082  10.505  45.492  1.00 24.33     0.182 C 
HETATM    3  C3  SGN C   4       5.446   9.493  44.545  1.00 24.72     0.178 C 
HETATM    4  C4  SGN C   4       5.213  10.119  43.178  1.00 24.11     0.186 C 
HETATM    5  C5  SGN C   4       6.520  10.767  42.719  1.00 25.01     0.181 C 
HETATM    6  O5  SGN C   4       6.998  11.710  43.660  1.00 24.61    -0.349 OA
ENDROOT
BRANCH   1   7
HETATM    7  O4  IDS C   3       8.418  10.143  44.762  1.00 24.52    -0.348 OA
BRANCH   7   8
HETATM    8  C4  IDS C   3       9.599  10.740  44.314  1.00 32.57     0.195 C 
HETATM    9  C3  IDS C   3       9.908  12.017  45.045  1.00 36.22     0.185 C 
HETATM   10  C2  IDS C   3      10.753  11.855  46.290  1.00 37.49     0.231 C 
HETATM   11  C1  IDS C   3      11.806  10.800  46.136  1.00 32.35     0.294 C 
HETATM   12  O5  IDS C   3      11.219   9.642  45.683  1.00 29.95    -0.340 OA
HETATM   13  C5  IDS C   3      10.765   9.792  44.393  1.00 31.73     0.257 C 
BRANCH   9  14
HETATM   14  O3  IDS C   3      10.591  12.855  44.185  1.00 35.64    -0.390 OA
ATOM     15  H3  IDS C   3      10.529  12.483  43.314  1.00  0.00     0.210 HD
ENDBRANCH   9  14
BRANCH  10  16
HETATM   16  O2  IDS C   3       9.962  11.590  47.393  1.00 41.30    -0.244 OA
BRANCH  16  17
HETATM   17  S   IDS C   3      10.277  12.261  48.668  1.00 46.67     0.252 S 
HETATM   18  O1S IDS C   3       9.080  12.828  49.236  1.00 45.84    -0.572 OA
HETATM   19  O2S IDS C   3      10.842  11.229  49.547  1.00 43.53    -0.572 OA
HETATM   20  O3S IDS C   3      11.245  13.312  48.466  1.00 50.85    -0.572 OA
ENDBRANCH  16  17
ENDBRANCH  10  16
BRANCH  11  21
HETATM   21  O4  SGN C   2      12.894  11.302  45.321  1.00 35.63    -0.348 OA
BRANCH  21  22
HETATM   22  C4  SGN C   2      13.652  12.323  45.959  1.00 34.14     0.186 C 
HETATM   23  C3  SGN C   2      14.439  11.668  47.089  1.00 36.01     0.178 C 
HETATM   24  C2  SGN C   2      15.529  12.566  47.680  1.00 38.29     0.182 C 
HETATM   25  C1  SGN C   2      16.355  13.242  46.585  1.00 40.25     0.287 C 
HETATM   26  O5  SGN C   2      15.489  13.890  45.675  1.00 40.44    -0.349 OA
HETATM   27  C5  SGN C   2      14.630  12.984  44.988  1.00 39.12     0.181 C 
BRANCH  23  28
HETATM   28  O3  SGN C   2      13.561  11.265  48.112  1.00 37.94    -0.391 OA
ATOM     29  H3  SGN C   2      12.954  10.619  47.770  1.00  0.00     0.210 HD
ENDBRANCH  23  28
BRANCH  24  30
HETATM   30  N2  SGN C   2      16.370  11.723  48.509  1.00 38.07    -0.289 N 
ATOM     31  H2  SGN C   2      16.916  10.984  48.067  1.00  0.00     0.175 HD
BRANCH  30  32
HETATM   32  S1  SGN C   2      16.470  11.916  50.094  1.00 51.36     0.205 S 
HETATM   33  O1S SGN C   2      15.704  13.107  50.443  1.00 53.59    -0.578 OA
HETATM   34  O2S SGN C   2      15.888  10.725  50.706  1.00 50.52    -0.578 OA
HETATM   35  O3S SGN C   2      17.893  12.066  50.383  1.00 54.39    -0.578 OA
ENDBRANCH  30  32
ENDBRANCH  24  30
BRANCH  25  36
HETATM   36  O4  BDP C   1      17.199  12.251  45.956  1.00 42.04    -0.348 OA
BRANCH  36  37
HETATM   37  C4  BDP C   1      18.482  12.717  45.716  1.00 48.48     0.195 C 
HETATM   38  C3  BDP C   1      19.434  12.028  46.636  1.00 51.01     0.181 C 
HETATM   39  C2  BDP C   1      20.850  12.219  46.218  1.00 53.01     0.173 C 
HETATM   40  C1  BDP C   1      21.036  11.923  44.770  1.00 54.14     0.203 C 
HETATM   41  O5  BDP C   1      20.172  12.717  44.046  1.00 54.15    -0.370 OA
HETATM   42  C5  BDP C   1      18.834  12.426  44.280  1.00 51.87     0.253 C 
BRANCH  38  43
HETATM   43  O3  BDP C   1      19.294  12.539  47.912  1.00 52.92    -0.390 OA
ATOM     44  H3  BDP C   1      18.533  13.109  47.916  1.00  0.00     0.210 HD
ENDBRANCH  38  43
BRANCH  39  45
HETATM   45  O2  BDP C   1      21.658  11.365  46.944  1.00 53.19    -0.391 OA
ATOM     46  H2  BDP C   1      21.129  10.952  47.616  1.00  0.00     0.210 HD
ENDBRANCH  39  45
BRANCH  42  47
HETATM   47  C6  BDP C   1      17.993  13.206  43.315  1.00 51.57     0.205 C 
HETATM   48  O6A BDP C   1      17.945  14.461  43.400  1.00 52.65    -0.646 OA
HETATM   49  O6B BDP C   1      17.329  12.607  42.427  1.00 51.09    -0.646 OA
ENDBRANCH  42  47
ENDBRANCH  36  37
ENDBRANCH  25  36
BRANCH  27  50
HETATM   50  C6  SGN C   2      13.917  13.712  43.853  1.00 42.92     0.227 C 
BRANCH  50  51
HETATM   51  O6  SGN C   2      14.159  15.099  43.934  1.00 46.75    -0.254 OA
BRANCH  51  52
HETATM   52  S2  SGN C   2      14.562  15.903  42.653  1.00 56.56     0.251 S 
HETATM   53  O4S SGN C   2      13.379  16.649  42.226  1.00 58.52    -0.572 OA
HETATM   54  O5S SGN C   2      15.664  16.791  43.002  1.00 53.95    -0.572 OA
HETATM   55  O6S SGN C   2      14.985  14.932  41.654  1.00 54.13    -0.572 OA
ENDBRANCH  51  52
ENDBRANCH  50  51
ENDBRANCH  27  50
ENDBRANCH  21  22
ENDBRANCH  11  21
BRANCH  13  56
HETATM   56  C6  IDS C   3      10.354   8.446  43.886  1.00 33.29     0.206 C 
HETATM   57  O6A IDS C   3      10.042   8.289  42.677  1.00 34.35    -0.646 OA
HETATM   58  O6B IDS C   3      10.309   7.466  44.678  1.00 34.80    -0.646 OA
ENDBRANCH  13  56
ENDBRANCH   7   8
ENDBRANCH   1   7
BRANCH   2  59
HETATM   59  N2  SGN C   4       6.347   9.876  46.773  1.00 24.47    -0.289 N 
ATOM     60  H2  SGN C   4       7.065   9.158  46.875  1.00  0.00     0.175 HD
BRANCH  59  61
HETATM   61  S1  SGN C   4       5.469  10.355  48.018  1.00 23.01     0.205 S 
HETATM   62  O1S SGN C   4       6.341  10.471  49.173  1.00 23.82    -0.578 OA
HETATM   63  O2S SGN C   4       4.889  11.652  47.684  1.00 21.15    -0.578 OA
HETATM   64  O3S SGN C   4       4.448   9.323  48.186  1.00 24.34    -0.578 OA
ENDBRANCH  59  61
ENDBRANCH   2  59
BRANCH   3  65
HETATM   65  O3  SGN C   4       4.220   9.042  45.088  1.00 24.01    -0.391 OA
ATOM     66  H3  SGN C   4       3.645   8.761  44.386  1.00  0.00     0.210 HD
ENDBRANCH   3  65
BRANCH   5  67
HETATM   67  C6  SGN C   4       6.369  11.478  41.380  1.00 29.42     0.227 C 
BRANCH  67  68
HETATM   68  O6  SGN C   4       6.185  12.863  41.574  1.00 33.38    -0.254 OA
BRANCH  68  69
HETATM   69  S2  SGN C   4       4.738  13.447  41.401  1.00 42.75     0.251 S 
HETATM   70  O4S SGN C   4       4.860  14.734  40.729  1.00 44.95    -0.572 OA
HETATM   71  O5S SGN C   4       4.005  12.462  40.619  1.00 42.87    -0.572 OA
HETATM   72  O6S SGN C   4       4.164  13.573  42.735  1.00 40.27    -0.572 OA
ENDBRANCH  68  69
ENDBRANCH  67  68
ENDBRANCH   5  67
BRANCH   4  73
HETATM   73  O4  SGN C   4       4.844   9.077  42.286  1.00 25.89    -0.348 OA
BRANCH  73  74
HETATM   74  C1  BDP C   5       3.446   9.081  41.926  1.00 28.36     0.292 C 
HETATM   75  C2  BDP C   5       2.839   7.738  42.199  1.00 31.13     0.204 C 
HETATM   76  C3  BDP C   5       1.426   7.691  41.734  1.00 33.85     0.183 C 
HETATM   77  C4  BDP C   5       0.633   8.837  42.267  1.00 31.81     0.195 C 
HETATM   78  C5  BDP C   5       1.409  10.125  42.107  1.00 27.14     0.257 C 
HETATM   79  O5  BDP C   5       2.703  10.020  42.623  1.00 24.75    -0.340 OA
BRANCH  75  80
HETATM   80  O2  BDP C   5       3.545   6.738  41.547  1.00 34.37    -0.388 OA
ATOM     81  H2  BDP C   5       3.507   6.857  40.605  1.00  0.00     0.210 HD
ENDBRANCH  75  80
BRANCH  76  82
HETATM   82  O3  BDP C   5       0.881   6.496  42.165  1.00 34.34    -0.390 OA
ATOM     83  H3  BDP C   5       0.120   6.700  42.696  1.00  0.00     0.210 HD
ENDBRANCH  76  82
BRANCH  77  84
HETATM   84  O4  BDP C   5      -0.553   8.962  41.544  1.00 33.34    -0.348 OA
BRANCH  84  85
HETATM   85  C1  NGY C   6      -0.544   8.273  40.272  1.00 35.33     0.286 C 
HETATM   86  C2  NGY C   6      -1.151   9.169  39.244  1.00 39.33     0.170 C 
HETATM   87  C3  NGY C   6      -2.591   9.352  39.571  1.00 39.13     0.177 C 
HETATM   88  C4  NGY C   6      -3.250   8.018  39.568  1.00 37.06     0.180 C 
HETATM   89  C5  NGY C   6      -2.566   7.178  40.597  1.00 32.98     0.181 C 
HETATM   90  O5  NGY C   6      -1.229   7.073  40.275  1.00 32.46    -0.349 OA
BRANCH  86  91
HETATM   91  N2  NGY C   6      -0.500  10.443  39.279  1.00 39.90    -0.349 N 
HETATM   92  C7  NGY C   6       0.626  10.703  38.439  1.00 44.73     0.214 C 
HETATM   93  O7  NGY C   6       1.043   9.836  37.683  1.00 46.19    -0.274 OA
HETATM   94  C8  NGY C   6       1.285  12.040  38.495  1.00 43.79     0.117 C 
ATOM     95  H2  NGY C   6      -0.843  11.170  39.907  1.00  0.00     0.163 HD
ENDBRANCH  86  91
BRANCH  87  96
HETATM   96  O3  NGY C   6      -3.190  10.183  38.647  1.00 44.02    -0.391 OA
ATOM     97  H3  NGY C   6      -2.679  10.209  37.847  1.00  0.00     0.210 HD
ENDBRANCH  87  96
BRANCH  88  98
HETATM   98  O4  NGY C   6      -4.581   8.163  39.886  1.00 37.39    -0.390 OA
ATOM     99  H4  NGY C   6      -4.765   7.701  40.696  1.00  0.00     0.210 HD
ENDBRANCH  88  98
BRANCH  89 100
HETATM  100  C6  NGY C   6      -3.194   5.823  40.703  1.00 31.91     0.227 C 
BRANCH 100 101
HETATM  101  O6  NGY C   6      -3.022   5.083  39.548  1.00 36.15    -0.254 OA
BRANCH 101 102
HETATM  102  S   NGY C   6      -2.806   3.621  39.633  1.00 34.85     0.251 S 
HETATM  103  O7A NGY C   6      -1.614   3.247  38.918  1.00 33.41    -0.572 OA
HETATM  104  O8  NGY C   6      -3.988   3.015  39.022  1.00 30.21    -0.572 OA
HETATM  105  O9  NGY C   6      -2.677   3.242  41.020  1.00 38.01    -0.572 OA
ENDBRANCH 101 102
ENDBRANCH 100 101
ENDBRANCH  89 100
ENDBRANCH  84  85
ENDBRANCH  77  84
BRANCH  78 106
HETATM  106  C6  BDP C   5       0.711  11.306  42.712  1.00 29.31     0.206 C 
HETATM  107  O6A BDP C   5       0.664  11.428  43.962  1.00 32.10    -0.646 OA
HETATM  108  O6B BDP C   5       0.157  12.167  41.980  1.00 26.46    -0.646 OA
ENDBRANCH  78 106
ENDBRANCH  73  74
ENDBRANCH   4  73
TORSDOF 38
ENDMDL
