MODEL 1
REMARK VINA RESULT:      -8.5      0.000      0.000
REMARK WARNING: 32 MAX_TORS EXCEEDED!!!
REMARK  38 active torsions:
REMARK  status: ('A' for Active; 'I' for Inactive)
REMARK    1  A    between atoms: C2_2  and  O2_3 
REMARK    2  A    between atoms: C3_5  and  O3_6 
REMARK    3  A    between atoms: C4_8  and  O4_9 
REMARK    4  A    between atoms: O4_9  and  C1_15 
REMARK    5  A    between atoms: C5_10  and  C6_12 
REMARK    6  A    between atoms: S1_17  and  N2_19 
REMARK    7  A    between atoms: C2_18  and  N2_19 
REMARK    8  A    between atoms: S2_22  and  O6_34 
REMARK    9  A    between atoms: C3_23  and  O3_24 
REMARK   10  A    between atoms: C4_27  and  O4_28 
REMARK   11  A    between atoms: O4_28  and  C1_36 
REMARK   12  A    between atoms: C5_30  and  C6_33 
REMARK   13  A    between atoms: C6_33  and  O6_34 
REMARK   14  A    between atoms: C2_38  and  O2_39 
REMARK   15  A    between atoms: O2_39  and  S_52 
REMARK   16  A    between atoms: C3_41  and  O3_42 
REMARK   17  A    between atoms: C4_45  and  O4_46 
REMARK   18  A    between atoms: O4_46  and  C1_53 
REMARK   19  A    between atoms: C5_47  and  C6_49 
REMARK   20  A    between atoms: S1_55  and  N2_57 
REMARK   21  A    between atoms: C2_56  and  N2_57 
REMARK   22  A    between atoms: S2_60  and  O6_72 
REMARK   23  A    between atoms: C3_61  and  O3_62 
REMARK   24  A    between atoms: C4_65  and  O4_66 
REMARK   25  A    between atoms: O4_66  and  C1_74 
REMARK   26  A    between atoms: C5_68  and  C6_71 
REMARK   27  A    between atoms: C6_71  and  O6_72 
REMARK   28  A    between atoms: C2_75  and  O2_76 
REMARK   29  A    between atoms: C3_78  and  O3_79 
REMARK   30  A    between atoms: C4_81  and  O4_82 
REMARK   31  A    between atoms: O4_82  and  C1_88 
REMARK   32  A    between atoms: C5_83  and  C6_85 
REMARK   33  A    between atoms: C2_89  and  N2_90 
REMARK       I    between atoms: N2_90  and  C7_102 
REMARK   34  A    between atoms: C3_92  and  O3_93 
REMARK   35  A    between atoms: C4_95  and  O4_96 
REMARK   36  A    between atoms: C5_98  and  C6_100 
REMARK   37  A    between atoms: C6_100  and  O6_101 
REMARK   38  A    between atoms: O6_101  and  S_108 
ROOT
HETATM    1  C1  SGN C   4      10.536  11.120  45.480  1.00 25.95     0.287 C 
HETATM    2  C2  SGN C   4      11.264   9.886  44.938  1.00 24.33     0.182 C 
HETATM    3  C3  SGN C   4      12.423   9.472  45.840  1.00 24.72     0.178 C 
HETATM    4  C4  SGN C   4      13.355  10.649  46.078  1.00 24.11     0.186 C 
HETATM    5  C5  SGN C   4      12.514  11.841  46.538  1.00 25.01     0.181 C 
HETATM    6  O5  SGN C   4      11.494  12.153  45.608  1.00 24.61    -0.349 OA
ENDROOT
BRANCH   1   7
HETATM    7  O4  IDS C   3       9.844  10.841  46.724  1.00 24.52    -0.348 OA
BRANCH   7   8
HETATM    8  C4  IDS C   3       9.069  11.931  47.128  1.00 32.57     0.195 C 
HETATM    9  C3  IDS C   3       7.782  12.034  46.359  1.00 36.22     0.185 C 
HETATM   10  C2  IDS C   3       6.610  11.292  46.964  1.00 37.49     0.231 C 
HETATM   11  C1  IDS C   3       6.602  11.357  48.461  1.00 32.35     0.294 C 
HETATM   12  O5  IDS C   3       7.834  10.974  48.935  1.00 29.95    -0.340 OA
HETATM   13  C5  IDS C   3       8.797  11.901  48.608  1.00 31.73     0.257 C 
BRANCH   9  14
HETATM   14  O3  IDS C   3       7.430  13.368  46.277  1.00 35.64    -0.390 OA
ATOM     15  H3  IDS C   3       8.146  13.826  45.852  1.00  0.00     0.210 HD
ENDBRANCH   9  14
BRANCH  10  16
HETATM   16  O2  IDS C   3       6.586   9.975  46.538  1.00 41.30    -0.244 OA
BRANCH  16  17
HETATM   17  S   IDS C   3       5.367   9.467  45.883  1.00 46.67     0.252 S 
HETATM   18  O1S IDS C   3       5.168  10.137  44.623  1.00 45.84    -0.572 OA
HETATM   19  O2S IDS C   3       5.577   8.026  45.687  1.00 43.53    -0.572 OA
HETATM   20  O3S IDS C   3       4.210   9.681  46.718  1.00 50.85    -0.572 OA
ENDBRANCH  16  17
ENDBRANCH  10  16
BRANCH  11  21
HETATM   21  O4  SGN C   2       6.150  12.663  48.897  1.00 35.63    -0.348 OA
BRANCH  21  22
HETATM   22  C4  SGN C   2       6.135  12.811  50.311  1.00 34.14     0.186 C 
HETATM   23  C3  SGN C   2       6.665  14.206  50.629  1.00 36.01     0.178 C 
HETATM   24  C2  SGN C   2       6.434  14.636  52.079  1.00 38.29     0.182 C 
HETATM   25  C1  SGN C   2       5.005  14.337  52.534  1.00 40.25     0.287 C 
HETATM   26  O5  SGN C   2       4.700  12.983  52.266  1.00 40.44    -0.349 OA
HETATM   27  C5  SGN C   2       4.721  12.675  50.875  1.00 39.12     0.181 C 
BRANCH  23  28
HETATM   28  O3  SGN C   2       8.040  14.273  50.336  1.00 37.94    -0.391 OA
ATOM     29  H3  SGN C   2       8.528  13.820  51.014  1.00  0.00     0.210 HD
ENDBRANCH  23  28
BRANCH  24  30
HETATM   30  N2  SGN C   2       6.707  16.059  52.149  1.00 38.07    -0.289 N 
ATOM     31  H2  SGN C   2       6.513  16.639  51.333  1.00  0.00     0.175 HD
BRANCH  30  32
HETATM   32  S1  SGN C   2       7.299  16.750  53.464  1.00 51.36     0.205 S 
HETATM   33  O1S SGN C   2       6.524  17.960  53.715  1.00 53.59    -0.578 OA
HETATM   34  O2S SGN C   2       7.138  15.795  54.557  1.00 50.52    -0.578 OA
HETATM   35  O3S SGN C   2       8.698  17.038  53.162  1.00 54.39    -0.578 OA
ENDBRANCH  30  32
ENDBRANCH  24  30
BRANCH  25  36
HETATM   36  O4  BDP C   1       4.104  15.260  51.881  1.00 42.04    -0.348 OA
BRANCH  36  37
HETATM   37  C4  BDP C   1       2.965  15.512  52.629  1.00 48.48     0.195 C 
HETATM   38  C3  BDP C   1       3.140  16.796  53.370  1.00 51.01     0.181 C 
HETATM   39  C2  BDP C   1       1.851  17.302  53.920  1.00 53.01     0.173 C 
HETATM   40  C1  BDP C   1       0.780  17.304  52.886  1.00 54.14     0.203 C 
HETATM   41  O5  BDP C   1       0.659  16.028  52.377  1.00 54.15    -0.370 OA
HETATM   42  C5  BDP C   1       1.789  15.603  51.690  1.00 51.87     0.253 C 
BRANCH  38  43
HETATM   43  O3  BDP C   1       4.008  16.605  54.427  1.00 52.92    -0.390 OA
ATOM     44  H3  BDP C   1       3.501  16.291  55.167  1.00  0.00     0.210 HD
ENDBRANCH  38  43
BRANCH  39  45
HETATM   45  O2  BDP C   1       2.026  18.597  54.368  1.00 53.19    -0.391 OA
ATOM     46  H2  BDP C   1       2.278  18.566  55.284  1.00  0.00     0.210 HD
ENDBRANCH  39  45
BRANCH  42  47
HETATM   47  C6  BDP C   1       1.486  14.293  51.026  1.00 51.57     0.205 C 
HETATM   48  O6A BDP C   1       1.130  13.306  51.720  1.00 52.65    -0.646 OA
HETATM   49  O6B BDP C   1       1.597  14.179  49.775  1.00 51.09    -0.646 OA
ENDBRANCH  42  47
ENDBRANCH  36  37
ENDBRANCH  25  36
BRANCH  27  50
HETATM   50  C6  SGN C   2       4.138  11.284  50.647  1.00 42.92     0.227 C 
BRANCH  50  51
HETATM   51  O6  SGN C   2       3.634  10.761  51.856  1.00 46.75    -0.254 OA
BRANCH  51  52
HETATM   52  S2  SGN C   2       2.990   9.336  51.888  1.00 56.56     0.251 S 
HETATM   53  O4S SGN C   2       3.473   8.621  50.708  1.00 58.52    -0.572 OA
HETATM   54  O5S SGN C   2       3.399   8.679  53.124  1.00 53.95    -0.572 OA
HETATM   55  O6S SGN C   2       1.545   9.518  51.862  1.00 54.13    -0.572 OA
ENDBRANCH  51  52
ENDBRANCH  50  51
ENDBRANCH  27  50
ENDBRANCH  21  22
ENDBRANCH  11  21
BRANCH  13  56
HETATM   56  C6  IDS C   3      10.052  11.546  49.342  1.00 33.29     0.206 C 
HETATM   57  O6A IDS C   3      11.014  12.356  49.386  1.00 34.35    -0.646 OA
HETATM   58  O6B IDS C   3      10.148  10.426  49.911  1.00 34.80    -0.646 OA
ENDBRANCH  13  56
ENDBRANCH   7   8
ENDBRANCH   1   7
BRANCH   2  59
HETATM   59  N2  SGN C   4      10.355   8.767  44.765  1.00 24.47    -0.289 N 
ATOM     60  H2  SGN C   4      10.210   8.081  45.506  1.00  0.00     0.175 HD
BRANCH  59  61
HETATM   61  S1  SGN C   4       9.593   8.654  43.366  1.00 23.01     0.205 S 
HETATM   62  O1S SGN C   4       9.004   7.330  43.274  1.00 23.82    -0.578 OA
HETATM   63  O2S SGN C   4       8.554   9.678  43.339  1.00 21.15    -0.578 OA
HETATM   64  O3S SGN C   4      10.618   8.884  42.351  1.00 24.34    -0.578 OA
ENDBRANCH  59  61
ENDBRANCH   2  59
BRANCH   3  65
HETATM   65  O3  SGN C   4      13.131   8.404  45.241  1.00 24.01    -0.391 OA
ATOM     66  H3  SGN C   4      12.958   8.393  44.307  1.00  0.00     0.210 HD
ENDBRANCH   3  65
BRANCH   5  67
HETATM   67  C6  SGN C   4      13.357  13.093  46.744  1.00 29.42     0.227 C 
BRANCH  67  68
HETATM   68  O6  SGN C   4      13.463  13.397  48.117  1.00 33.38    -0.254 OA
BRANCH  68  69
HETATM   69  S2  SGN C   4      13.921  14.844  48.520  1.00 42.75     0.251 S 
HETATM   70  O4S SGN C   4      12.913  15.391  49.419  1.00 44.95    -0.572 OA
HETATM   71  O5S SGN C   4      15.223  14.686  49.151  1.00 42.87    -0.572 OA
HETATM   72  O6S SGN C   4      14.038  15.615  47.289  1.00 40.27    -0.572 OA
ENDBRANCH  68  69
ENDBRANCH  67  68
ENDBRANCH   5  67
BRANCH   4  73
HETATM   73  O4  SGN C   4      14.269  10.273  47.099  1.00 25.89    -0.348 OA
BRANCH  73  74
HETATM   74  C1  BDP C   5      15.616  10.742  46.882  1.00 28.36     0.292 C 
HETATM   75  C2  BDP C   5      16.315  10.930  48.194  1.00 31.13     0.204 C 
HETATM   76  C3  BDP C   5      17.669  11.515  47.995  1.00 33.85     0.183 C 
HETATM   77  C4  BDP C   5      18.459  10.745  46.990  1.00 31.81     0.195 C 
HETATM   78  C5  BDP C   5      17.608  10.450  45.775  1.00 27.14     0.257 C 
HETATM   79  O5  BDP C   5      16.385   9.872  46.125  1.00 24.75    -0.340 OA
BRANCH  75  80
HETATM   80  O2  BDP C   5      15.591  11.779  49.019  1.00 34.37    -0.388 OA
ATOM     81  H2  BDP C   5      16.070  11.959  49.820  1.00  0.00     0.210 HD
ENDBRANCH  75  80
BRANCH  76  82
HETATM   82  O3  BDP C   5      18.316  11.504  49.216  1.00 34.34    -0.390 OA
ATOM     83  H3  BDP C   5      19.249  11.428  49.049  1.00  0.00     0.210 HD
ENDBRANCH  76  82
BRANCH  77  84
HETATM   84  O4  BDP C   5      19.550  11.505  46.571  1.00 33.34    -0.348 OA
BRANCH  84  85
HETATM   85  C1  NGY C   6      20.670  11.485  47.487  1.00 35.33     0.286 C 
HETATM   86  C2  NGY C   6      21.436  12.757  47.326  1.00 39.33     0.170 C 
HETATM   87  C3  NGY C   6      22.049  12.769  45.969  1.00 39.13     0.177 C 
HETATM   88  C4  NGY C   6      22.947  11.589  45.847  1.00 37.06     0.180 C 
HETATM   89  C5  NGY C   6      22.112  10.366  46.051  1.00 32.98     0.181 C 
HETATM   90  O5  NGY C   6      21.533  10.422  47.301  1.00 32.46    -0.349 OA
BRANCH  86  91
HETATM   91  N2  NGY C   6      20.542  13.868  47.442  1.00 39.90    -0.349 N 
HETATM   92  C7  NGY C   6      20.715  14.829  48.485  1.00 44.73     0.214 C 
HETATM   93  O7  NGY C   6      21.629  14.707  49.288  1.00 46.19    -0.274 OA
HETATM   94  C8  NGY C   6      19.769  15.979  48.583  1.00 43.79     0.117 C 
ATOM     95  H2  NGY C   6      19.778  13.976  46.776  1.00  0.00     0.163 HD
ENDBRANCH  86  91
BRANCH  87  96
HETATM   96  O3  NGY C   6      22.760  13.934  45.776  1.00 44.02    -0.391 OA
ATOM     97  H3  NGY C   6      23.546  13.761  45.271  1.00  0.00     0.210 HD
ENDBRANCH  87  96
BRANCH  88  98
HETATM   98  O4  NGY C   6      23.511  11.571  44.592  1.00 37.39    -0.390 OA
ATOM     99  H4  NGY C   6      23.853  10.703  44.411  1.00  0.00     0.210 HD
ENDBRANCH  88  98
BRANCH  89 100
HETATM  100  C6  NGY C   6      22.924   9.117  45.897  1.00 31.91     0.227 C 
BRANCH 100 101
HETATM  101  O6  NGY C   6      24.237   9.305  46.283  1.00 36.15    -0.254 OA
BRANCH 101 102
HETATM  102  S   NGY C   6      25.113   8.135  46.519  1.00 34.85     0.251 S 
HETATM  103  O7A NGY C   6      26.142   8.461  47.472  1.00 33.41    -0.572 OA
HETATM  104  O8  NGY C   6      25.696   7.814  45.217  1.00 30.21    -0.572 OA
HETATM  105  O9  NGY C   6      24.315   7.043  47.023  1.00 38.01    -0.572 OA
ENDBRANCH 101 102
ENDBRANCH 100 101
ENDBRANCH  89 100
ENDBRANCH  84  85
ENDBRANCH  77  84
BRANCH  78 106
HETATM  106  C6  BDP C   5      18.308   9.592  44.765  1.00 29.31     0.206 C 
HETATM  107  O6A BDP C   5      19.113   8.708  45.151  1.00 32.10    -0.646 OA
HETATM  108  O6B BDP C   5      18.113   9.763  43.534  1.00 26.46    -0.646 OA
ENDBRANCH  78 106
ENDBRANCH  73  74
ENDBRANCH   4  73
TORSDOF 38
ENDMDL
MODEL 2
REMARK VINA RESULT:      -7.7      4.481     14.976
REMARK WARNING: 32 MAX_TORS EXCEEDED!!!
REMARK  38 active torsions:
REMARK  status: ('A' for Active; 'I' for Inactive)
REMARK    1  A    between atoms: C2_2  and  O2_3 
REMARK    2  A    between atoms: C3_5  and  O3_6 
REMARK    3  A    between atoms: C4_8  and  O4_9 
REMARK    4  A    between atoms: O4_9  and  C1_15 
REMARK    5  A    between atoms: C5_10  and  C6_12 
REMARK    6  A    between atoms: S1_17  and  N2_19 
REMARK    7  A    between atoms: C2_18  and  N2_19 
REMARK    8  A    between atoms: S2_22  and  O6_34 
REMARK    9  A    between atoms: C3_23  and  O3_24 
REMARK   10  A    between atoms: C4_27  and  O4_28 
REMARK   11  A    between atoms: O4_28  and  C1_36 
REMARK   12  A    between atoms: C5_30  and  C6_33 
REMARK   13  A    between atoms: C6_33  and  O6_34 
REMARK   14  A    between atoms: C2_38  and  O2_39 
REMARK   15  A    between atoms: O2_39  and  S_52 
REMARK   16  A    between atoms: C3_41  and  O3_42 
REMARK   17  A    between atoms: C4_45  and  O4_46 
REMARK   18  A    between atoms: O4_46  and  C1_53 
REMARK   19  A    between atoms: C5_47  and  C6_49 
REMARK   20  A    between atoms: S1_55  and  N2_57 
REMARK   21  A    between atoms: C2_56  and  N2_57 
REMARK   22  A    between atoms: S2_60  and  O6_72 
REMARK   23  A    between atoms: C3_61  and  O3_62 
REMARK   24  A    between atoms: C4_65  and  O4_66 
REMARK   25  A    between atoms: O4_66  and  C1_74 
REMARK   26  A    between atoms: C5_68  and  C6_71 
REMARK   27  A    between atoms: C6_71  and  O6_72 
REMARK   28  A    between atoms: C2_75  and  O2_76 
REMARK   29  A    between atoms: C3_78  and  O3_79 
REMARK   30  A    between atoms: C4_81  and  O4_82 
REMARK   31  A    between atoms: O4_82  and  C1_88 
REMARK   32  A    between atoms: C5_83  and  C6_85 
REMARK   33  A    between atoms: C2_89  and  N2_90 
REMARK       I    between atoms: N2_90  and  C7_102 
REMARK   34  A    between atoms: C3_92  and  O3_93 
REMARK   35  A    between atoms: C4_95  and  O4_96 
REMARK   36  A    between atoms: C5_98  and  C6_100 
REMARK   37  A    between atoms: C6_100  and  O6_101 
REMARK   38  A    between atoms: O6_101  and  S_108 
ROOT
HETATM    1  C1  SGN C   4      12.886  10.044  46.866  1.00 25.95     0.287 C 
HETATM    2  C2  SGN C   4      12.438   8.819  46.064  1.00 24.33     0.182 C 
HETATM    3  C3  SGN C   4      11.490   9.201  44.931  1.00 24.72     0.178 C 
HETATM    4  C4  SGN C   4      10.322  10.013  45.470  1.00 24.11     0.186 C 
HETATM    5  C5  SGN C   4      10.884  11.156  46.316  1.00 25.01     0.181 C 
HETATM    6  O5  SGN C   4      11.721  10.681  47.353  1.00 24.61    -0.349 OA
ENDROOT
BRANCH   1   7
HETATM    7  O4  IDS C   3      13.722  10.932  46.080  1.00 24.52    -0.348 OA
BRANCH   7   8
HETATM    8  C4  IDS C   3      14.449  11.800  46.899  1.00 32.57     0.195 C 
HETATM    9  C3  IDS C   3      15.705  11.168  47.432  1.00 36.22     0.185 C 
HETATM   10  C2  IDS C   3      16.933  11.352  46.567  1.00 37.49     0.231 C 
HETATM   11  C1  IDS C   3      16.983  12.704  45.923  1.00 32.35     0.294 C 
HETATM   12  O5  IDS C   3      15.788  12.944  45.287  1.00 29.95    -0.340 OA
HETATM   13  C5  IDS C   3      14.767  13.092  46.197  1.00 31.73     0.257 C 
BRANCH   9  14
HETATM   14  O3  IDS C   3      15.980  11.722  48.667  1.00 35.64    -0.390 OA
ATOM     15  H3  IDS C   3      15.344  11.378  49.283  1.00  0.00     0.210 HD
ENDBRANCH   9  14
BRANCH  10  16
HETATM   16  O2  IDS C   3      17.016  10.357  45.609  1.00 41.30    -0.244 OA
BRANCH  16  17
HETATM   17  S   IDS C   3      18.350   9.922  45.156  1.00 46.67     0.252 S 
HETATM   18  O1S IDS C   3      19.328  10.182  46.181  1.00 45.84    -0.572 OA
HETATM   19  O2S IDS C   3      18.241   8.483  44.881  1.00 43.53    -0.572 OA
HETATM   20  O3S IDS C   3      18.733  10.620  43.952  1.00 50.85    -0.572 OA
ENDBRANCH  16  17
ENDBRANCH  10  16
BRANCH  11  21
HETATM   21  O4  SGN C   2      17.376  13.702  46.897  1.00 35.63    -0.348 OA
BRANCH  21  22
HETATM   22  C4  SGN C   2      18.414  14.559  46.439  1.00 34.14     0.186 C 
HETATM   23  C3  SGN C   2      19.352  13.721  45.577  1.00 36.01     0.178 C 
HETATM   24  C2  SGN C   2      20.350  14.551  44.766  1.00 38.29     0.182 C 
HETATM   25  C1  SGN C   2      19.666  15.729  44.071  1.00 40.25     0.287 C 
HETATM   26  O5  SGN C   2      18.920  16.466  45.018  1.00 40.44    -0.349 OA
HETATM   27  C5  SGN C   2      17.861  15.710  45.599  1.00 39.12     0.181 C 
BRANCH  23  28
HETATM   28  O3  SGN C   2      20.055  12.807  46.385  1.00 37.94    -0.391 OA
ATOM     29  H3  SGN C   2      20.967  13.069  46.436  1.00  0.00     0.210 HD
ENDBRANCH  23  28
BRANCH  24  30
HETATM   30  N2  SGN C   2      20.951  13.660  43.792  1.00 38.07    -0.289 N 
ATOM     31  H2  SGN C   2      20.522  13.575  42.870  1.00  0.00     0.175 HD
BRANCH  30  32
HETATM   32  S1  SGN C   2      22.265  12.808  44.114  1.00 51.36     0.205 S 
HETATM   33  O1S SGN C   2      23.207  13.017  43.018  1.00 53.59    -0.578 OA
HETATM   34  O2S SGN C   2      22.809  13.320  45.369  1.00 50.52    -0.578 OA
HETATM   35  O3S SGN C   2      21.822  11.421  44.209  1.00 54.39    -0.578 OA
ENDBRANCH  30  32
ENDBRANCH  24  30
BRANCH  25  36
HETATM   36  O4  BDP C   1      18.858  15.224  42.983  1.00 42.04    -0.348 OA
BRANCH  36  37
HETATM   37  C4  BDP C   1      18.199  16.232  42.296  1.00 48.48     0.195 C 
HETATM   38  C3  BDP C   1      19.196  17.032  41.526  1.00 51.01     0.181 C 
HETATM   39  C2  BDP C   1      18.545  17.906  40.510  1.00 53.01     0.173 C 
HETATM   40  C1  BDP C   1      17.564  17.148  39.686  1.00 54.14     0.203 C 
HETATM   41  O5  BDP C   1      16.644  16.561  40.530  1.00 54.15    -0.370 OA
HETATM   42  C5  BDP C   1      17.200  15.598  41.362  1.00 51.87     0.253 C 
BRANCH  38  43
HETATM   43  O3  BDP C   1      19.906  17.841  42.391  1.00 52.92    -0.390 OA
ATOM     44  H3  BDP C   1      20.413  18.453  41.870  1.00  0.00     0.210 HD
ENDBRANCH  38  43
BRANCH  39  45
HETATM   45  O2  BDP C   1      19.512  18.424  39.670  1.00 53.19    -0.391 OA
ATOM     46  H2  BDP C   1      19.786  19.266  40.012  1.00  0.00     0.210 HD
ENDBRANCH  39  45
BRANCH  42  47
HETATM   47  C6  BDP C   1      16.096  14.898  42.096  1.00 51.57     0.205 C 
HETATM   48  O6A BDP C   1      15.456  15.507  42.993  1.00 52.65    -0.646 OA
HETATM   49  O6B BDP C   1      15.815  13.700  41.822  1.00 51.09    -0.646 OA
ENDBRANCH  42  47
ENDBRANCH  36  37
ENDBRANCH  25  36
BRANCH  27  50
HETATM   50  C6  SGN C   2      16.953  16.633  46.406  1.00 42.92     0.227 C 
BRANCH  50  51
HETATM   51  O6  SGN C   2      15.599  16.363  46.115  1.00 46.75    -0.254 OA
BRANCH  51  52
HETATM   52  S2  SGN C   2      14.486  17.377  46.541  1.00 56.56     0.251 S 
HETATM   53  O4S SGN C   2      15.145  18.661  46.775  1.00 58.52    -0.572 OA
HETATM   54  O5S SGN C   2      13.509  17.459  45.462  1.00 53.95    -0.572 OA
HETATM   55  O6S SGN C   2      13.868  16.852  47.750  1.00 54.13    -0.572 OA
ENDBRANCH  51  52
ENDBRANCH  50  51
ENDBRANCH  27  50
ENDBRANCH  21  22
ENDBRANCH  11  21
BRANCH  13  56
HETATM   56  C6  IDS C   3      13.557  13.575  45.461  1.00 33.29     0.206 C 
HETATM   57  O6A IDS C   3      13.444  13.377  44.223  1.00 34.35    -0.646 OA
HETATM   58  O6B IDS C   3      12.651  14.192  46.083  1.00 34.80    -0.646 OA
ENDBRANCH  13  56
ENDBRANCH   7   8
ENDBRANCH   1   7
BRANCH   2  59
HETATM   59  N2  SGN C   4      13.574   8.091  45.526  1.00 24.47    -0.289 N 
ATOM     60  H2  SGN C   4      14.137   8.472  44.765  1.00  0.00     0.175 HD
BRANCH  59  61
HETATM   61  S1  SGN C   4      13.905   6.670  46.174  1.00 23.01     0.205 S 
HETATM   62  O1S SGN C   4      15.039   6.101  45.468  1.00 23.82    -0.578 OA
HETATM   63  O2S SGN C   4      14.234   6.885  47.579  1.00 21.15    -0.578 OA
HETATM   64  O3S SGN C   4      12.687   5.879  46.009  1.00 24.34    -0.578 OA
ENDBRANCH  59  61
ENDBRANCH   2  59
BRANCH   3  65
HETATM   65  O3  SGN C   4      11.015   8.029  44.296  1.00 24.01    -0.391 OA
ATOM     66  H3  SGN C   4      11.743   7.441  44.130  1.00  0.00     0.210 HD
ENDBRANCH   3  65
BRANCH   5  67
HETATM   67  C6  SGN C   4       9.782  11.994  46.953  1.00 29.42     0.227 C 
BRANCH  67  68
HETATM   68  O6  SGN C   4       8.913  11.178  47.707  1.00 33.38    -0.254 OA
BRANCH  68  69
HETATM   69  S2  SGN C   4       8.753  11.488  49.237  1.00 42.75     0.251 S 
HETATM   70  O4S SGN C   4       7.390  11.138  49.617  1.00 44.95    -0.572 OA
HETATM   71  O5S SGN C   4       9.759  10.681  49.913  1.00 42.87    -0.572 OA
HETATM   72  O6S SGN C   4       9.028  12.908  49.419  1.00 40.27    -0.572 OA
ENDBRANCH  68  69
ENDBRANCH  67  68
ENDBRANCH   5  67
BRANCH   4  73
HETATM   73  O4  SGN C   4       9.611  10.532  44.356  1.00 25.89    -0.348 OA
BRANCH  73  74
HETATM   74  C1  BDP C   5       8.210  10.184  44.339  1.00 28.36     0.292 C 
HETATM   75  C2  BDP C   5       7.423  11.243  43.630  1.00 31.13     0.204 C 
HETATM   76  C3  BDP C   5       5.965  10.953  43.697  1.00 33.85     0.183 C 
HETATM   77  C4  BDP C   5       5.658   9.564  43.246  1.00 31.81     0.195 C 
HETATM   78  C5  BDP C   5       6.624   8.588  43.880  1.00 27.14     0.257 C 
HETATM   79  O5  BDP C   5       7.953   8.980  43.702  1.00 24.75    -0.340 OA
BRANCH  75  80
HETATM   80  O2  BDP C   5       7.646  12.487  44.202  1.00 34.37    -0.388 OA
ATOM     81  H2  BDP C   5       7.359  13.182  43.621  1.00  0.00     0.210 HD
ENDBRANCH  75  80
BRANCH  76  82
HETATM   82  O3  BDP C   5       5.316  11.867  42.888  1.00 34.34    -0.390 OA
ATOM     83  H3  BDP C   5       5.958  12.506  42.600  1.00  0.00     0.210 HD
ENDBRANCH  76  82
BRANCH  77  84
HETATM   84  O4  BDP C   5       4.371   9.214  43.652  1.00 33.34    -0.348 OA
BRANCH  84  85
HETATM   85  C1  NGY C   6       3.330  10.055  43.103  1.00 35.33     0.286 C 
HETATM   86  C2  NGY C   6       2.044   9.725  43.786  1.00 39.33     0.170 C 
HETATM   87  C3  NGY C   6       1.655   8.337  43.413  1.00 39.13     0.177 C 
HETATM   88  C4  NGY C   6       1.502   8.272  41.934  1.00 37.06     0.180 C 
HETATM   89  C5  NGY C   6       2.817   8.644  41.330  1.00 32.98     0.181 C 
HETATM   90  O5  NGY C   6       3.154   9.918  41.739  1.00 32.46    -0.349 OA
BRANCH  86  91
HETATM   91  N2  NGY C   6       2.229   9.789  45.204  1.00 39.90    -0.349 N 
HETATM   92  C7  NGY C   6       1.199  10.314  46.044  1.00 44.73     0.214 C 
HETATM   93  O7  NGY C   6       0.151  10.713  45.556  1.00 46.19    -0.274 OA
HETATM   94  C8  NGY C   6       1.417  10.370  47.519  1.00 43.79     0.117 C 
ATOM     95  H2  NGY C   6       3.100   9.459  45.617  1.00  0.00     0.163 HD
ENDBRANCH  86  91
BRANCH  87  96
HETATM   96  O3  NGY C   6       0.474   7.988  44.032  1.00 44.02    -0.391 OA
ATOM     97  H3  NGY C   6       0.630   7.771  44.943  1.00  0.00     0.210 HD
ENDBRANCH  87  96
BRANCH  88  98
HETATM   98  O4  NGY C   6       1.160   6.991  41.565  1.00 37.39    -0.390 OA
ATOM     99  H4  NGY C   6       1.654   6.369  42.086  1.00  0.00     0.210 HD
ENDBRANCH  88  98
BRANCH  89 100
HETATM  100  C6  NGY C   6       2.777   8.561  39.836  1.00 31.91     0.227 C 
BRANCH 100 101
HETATM  101  O6  NGY C   6       1.500   8.755  39.343  1.00 36.15    -0.254 OA
BRANCH 101 102
HETATM  102  S   NGY C   6       1.211   9.921  38.478  1.00 34.85     0.251 S 
HETATM  103  O7A NGY C   6       2.434  10.580  38.099  1.00 33.41    -0.572 OA
HETATM  104  O8  NGY C   6       0.373  10.808  39.284  1.00 30.21    -0.572 OA
HETATM  105  O9  NGY C   6       0.518   9.471  37.295  1.00 38.01    -0.572 OA
ENDBRANCH 101 102
ENDBRANCH 100 101
ENDBRANCH  89 100
ENDBRANCH  84  85
ENDBRANCH  77  84
BRANCH  78 106
HETATM  106  C6  BDP C   5       6.436   7.182  43.394  1.00 29.31     0.206 C 
HETATM  107  O6A BDP C   5       7.428   6.415  43.310  1.00 32.10    -0.646 OA
HETATM  108  O6B BDP C   5       5.298   6.769  43.053  1.00 26.46    -0.646 OA
ENDBRANCH  78 106
ENDBRANCH  73  74
ENDBRANCH   4  73
TORSDOF 38
ENDMDL
MODEL 3
REMARK VINA RESULT:      -7.7      6.293     16.334
REMARK WARNING: 32 MAX_TORS EXCEEDED!!!
REMARK  38 active torsions:
REMARK  status: ('A' for Active; 'I' for Inactive)
REMARK    1  A    between atoms: C2_2  and  O2_3 
REMARK    2  A    between atoms: C3_5  and  O3_6 
REMARK    3  A    between atoms: C4_8  and  O4_9 
REMARK    4  A    between atoms: O4_9  and  C1_15 
REMARK    5  A    between atoms: C5_10  and  C6_12 
REMARK    6  A    between atoms: S1_17  and  N2_19 
REMARK    7  A    between atoms: C2_18  and  N2_19 
REMARK    8  A    between atoms: S2_22  and  O6_34 
REMARK    9  A    between atoms: C3_23  and  O3_24 
REMARK   10  A    between atoms: C4_27  and  O4_28 
REMARK   11  A    between atoms: O4_28  and  C1_36 
REMARK   12  A    between atoms: C5_30  and  C6_33 
REMARK   13  A    between atoms: C6_33  and  O6_34 
REMARK   14  A    between atoms: C2_38  and  O2_39 
REMARK   15  A    between atoms: O2_39  and  S_52 
REMARK   16  A    between atoms: C3_41  and  O3_42 
REMARK   17  A    between atoms: C4_45  and  O4_46 
REMARK   18  A    between atoms: O4_46  and  C1_53 
REMARK   19  A    between atoms: C5_47  and  C6_49 
REMARK   20  A    between atoms: S1_55  and  N2_57 
REMARK   21  A    between atoms: C2_56  and  N2_57 
REMARK   22  A    between atoms: S2_60  and  O6_72 
REMARK   23  A    between atoms: C3_61  and  O3_62 
REMARK   24  A    between atoms: C4_65  and  O4_66 
REMARK   25  A    between atoms: O4_66  and  C1_74 
REMARK   26  A    between atoms: C5_68  and  C6_71 
REMARK   27  A    between atoms: C6_71  and  O6_72 
REMARK   28  A    between atoms: C2_75  and  O2_76 
REMARK   29  A    between atoms: C3_78  and  O3_79 
REMARK   30  A    between atoms: C4_81  and  O4_82 
REMARK   31  A    between atoms: O4_82  and  C1_88 
REMARK   32  A    between atoms: C5_83  and  C6_85 
REMARK   33  A    between atoms: C2_89  and  N2_90 
REMARK       I    between atoms: N2_90  and  C7_102 
REMARK   34  A    between atoms: C3_92  and  O3_93 
REMARK   35  A    between atoms: C4_95  and  O4_96 
REMARK   36  A    between atoms: C5_98  and  C6_100 
REMARK   37  A    between atoms: C6_100  and  O6_101 
REMARK   38  A    between atoms: O6_101  and  S_108 
ROOT
HETATM    1  C1  SGN C   4       6.957  11.025  44.893  1.00 25.95     0.287 C 
HETATM    2  C2  SGN C   4       5.787  10.264  45.525  1.00 24.33     0.182 C 
HETATM    3  C3  SGN C   4       5.199   9.234  44.565  1.00 24.72     0.178 C 
HETATM    4  C4  SGN C   4       4.830   9.893  43.245  1.00 24.11     0.186 C 
HETATM    5  C5  SGN C   4       6.040  10.686  42.750  1.00 25.01     0.181 C 
HETATM    6  O5  SGN C   4       6.477  11.631  43.709  1.00 24.61    -0.349 OA
ENDROOT
BRANCH   1   7
HETATM    7  O4  IDS C   3       8.102  10.166  44.659  1.00 24.52    -0.348 OA
BRANCH   7   8
HETATM    8  C4  IDS C   3       9.248  10.915  44.378  1.00 32.57     0.195 C 
HETATM    9  C3  IDS C   3       9.345  12.152  45.226  1.00 36.22     0.185 C 
HETATM   10  C2  IDS C   3      10.080  11.976  46.537  1.00 37.49     0.231 C 
HETATM   11  C1  IDS C   3      11.251  11.050  46.418  1.00 32.35     0.294 C 
HETATM   12  O5  IDS C   3      10.841   9.879  45.825  1.00 29.95    -0.340 OA
HETATM   13  C5  IDS C   3      10.498  10.088  44.509  1.00 31.73     0.257 C 
BRANCH   9  14
HETATM   14  O3  IDS C   3      10.010  13.123  44.504  1.00 35.64    -0.390 OA
ATOM     15  H3  IDS C   3      10.427  13.707  45.127  1.00  0.00     0.210 HD
ENDBRANCH   9  14
BRANCH  10  16
HETATM   16  O2  IDS C   3       9.221  11.542  47.531  1.00 41.30    -0.244 OA
BRANCH  16  17
HETATM   17  S   IDS C   3       9.561  11.833  48.937  1.00 46.67     0.252 S 
HETATM   18  O1S IDS C   3      10.874  11.324  49.241  1.00 45.84    -0.572 OA
HETATM   19  O2S IDS C   3       9.515  13.294  49.077  1.00 43.53    -0.572 OA
HETATM   20  O3S IDS C   3       8.603  11.228  49.830  1.00 50.85    -0.572 OA
ENDBRANCH  16  17
ENDBRANCH  10  16
BRANCH  11  21
HETATM   21  O4  SGN C   2      12.350  11.725  45.758  1.00 35.63    -0.348 OA
BRANCH  21  22
HETATM   22  C4  SGN C   2      13.578  11.632  46.469  1.00 34.14     0.186 C 
HETATM   23  C3  SGN C   2      14.522  10.768  45.640  1.00 36.01     0.178 C 
HETATM   24  C2  SGN C   2      15.976  10.816  46.115  1.00 38.29     0.182 C 
HETATM   25  C1  SGN C   2      16.434  12.250  46.381  1.00 40.25     0.287 C 
HETATM   26  O5  SGN C   2      15.512  12.885  47.245  1.00 40.44    -0.349 OA
HETATM   27  C5  SGN C   2      14.213  13.008  46.674  1.00 39.12     0.181 C 
BRANCH  23  28
HETATM   28  O3  SGN C   2      14.075   9.434  45.642  1.00 37.94    -0.391 OA
ATOM     29  H3  SGN C   2      14.193   9.061  44.777  1.00  0.00     0.210 HD
ENDBRANCH  23  28
BRANCH  24  30
HETATM   30  N2  SGN C   2      16.784  10.206  45.074  1.00 38.07    -0.289 N 
ATOM     31  H2  SGN C   2      16.374  10.069  44.149  1.00  0.00     0.175 HD
BRANCH  30  32
HETATM   32  S1  SGN C   2      18.293   9.743  45.327  1.00 51.36     0.205 S 
HETATM   33  O1S SGN C   2      19.157  10.584  44.506  1.00 53.59    -0.578 OA
HETATM   34  O2S SGN C   2      18.568   9.946  46.746  1.00 50.52    -0.578 OA
HETATM   35  O3S SGN C   2      18.346   8.339  44.933  1.00 54.39    -0.578 OA
ENDBRANCH  30  32
ENDBRANCH  24  30
BRANCH  25  36
HETATM   36  O4  BDP C   1      16.588  12.935  45.117  1.00 42.04    -0.348 OA
BRANCH  36  37
HETATM   37  C4  BDP C   1      17.386  14.064  45.216  1.00 48.48     0.195 C 
HETATM   38  C3  BDP C   1      18.786  13.708  44.838  1.00 51.01     0.181 C 
HETATM   39  C2  BDP C   1      19.622  14.917  44.594  1.00 53.01     0.173 C 
HETATM   40  C1  BDP C   1      18.939  15.876  43.682  1.00 54.14     0.203 C 
HETATM   41  O5  BDP C   1      17.711  16.197  44.221  1.00 54.15    -0.370 OA
HETATM   42  C5  BDP C   1      16.842  15.116  44.284  1.00 51.87     0.253 C 
BRANCH  38  43
HETATM   43  O3  BDP C   1      19.371  12.987  45.860  1.00 52.92    -0.390 OA
ATOM     44  H3  BDP C   1      18.676  12.622  46.395  1.00  0.00     0.210 HD
ENDBRANCH  38  43
BRANCH  39  45
HETATM   45  O2  BDP C   1      20.814  14.535  44.011  1.00 53.19    -0.391 OA
ATOM     46  H2  BDP C   1      20.661  14.389  43.085  1.00  0.00     0.210 HD
ENDBRANCH  39  45
BRANCH  42  47
HETATM   47  C6  BDP C   1      15.489  15.607  44.706  1.00 51.57     0.205 C 
HETATM   48  O6A BDP C   1      14.490  15.397  43.971  1.00 52.65    -0.646 OA
HETATM   49  O6B BDP C   1      15.356  16.236  45.790  1.00 51.09    -0.646 OA
ENDBRANCH  42  47
ENDBRANCH  36  37
ENDBRANCH  25  36
BRANCH  27  50
HETATM   50  C6  SGN C   2      13.353  13.919  47.544  1.00 42.92     0.227 C 
BRANCH  50  51
HETATM   51  O6  SGN C   2      14.150  14.565  48.513  1.00 46.75    -0.254 OA
BRANCH  51  52
HETATM   52  S2  SGN C   2      13.823  14.404  50.034  1.00 56.56     0.251 S 
HETATM   53  O4S SGN C   2      12.415  14.757  50.209  1.00 58.52    -0.572 OA
HETATM   54  O5S SGN C   2      14.084  13.020  50.412  1.00 53.95    -0.572 OA
HETATM   55  O6S SGN C   2      14.707  15.306  50.760  1.00 54.13    -0.572 OA
ENDBRANCH  51  52
ENDBRANCH  50  51
ENDBRANCH  27  50
ENDBRANCH  21  22
ENDBRANCH  11  21
BRANCH  13  56
HETATM   56  C6  IDS C   3      10.286   8.752  43.868  1.00 33.29     0.206 C 
HETATM   57  O6A IDS C   3      10.156   8.659  42.620  1.00 34.35    -0.646 OA
HETATM   58  O6B IDS C   3      10.228   7.717  44.584  1.00 34.80    -0.646 OA
ENDBRANCH  13  56
ENDBRANCH   7   8
ENDBRANCH   1   7
BRANCH   2  59
HETATM   59  N2  SGN C   4       6.184   9.610  46.759  1.00 24.47    -0.289 N 
ATOM     60  H2  SGN C   4       6.998   8.996  46.798  1.00  0.00     0.175 HD
BRANCH  59  61
HETATM   61  S1  SGN C   4       5.293   9.890  48.055  1.00 23.01     0.205 S 
HETATM   62  O1S SGN C   4       3.895   9.773  47.680  1.00 23.82    -0.578 OA
HETATM   63  O2S SGN C   4       5.638   8.890  49.060  1.00 21.15    -0.578 OA
HETATM   64  O3S SGN C   4       5.648  11.242  48.479  1.00 24.34    -0.578 OA
ENDBRANCH  59  61
ENDBRANCH   2  59
BRANCH   3  65
HETATM   65  O3  SGN C   4       4.055   8.641  45.149  1.00 24.01    -0.391 OA
ATOM     66  H3  SGN C   4       4.159   8.613  46.093  1.00  0.00     0.210 HD
ENDBRANCH   3  65
BRANCH   5  67
HETATM   67  C6  SGN C   4       5.746  11.436  41.456  1.00 29.42     0.227 C 
BRANCH  67  68
HETATM   68  O6  SGN C   4       4.460  12.012  41.501  1.00 33.38    -0.254 OA
BRANCH  68  69
HETATM   69  S2  SGN C   4       4.321  13.535  41.143  1.00 42.75     0.251 S 
HETATM   70  O4S SGN C   4       5.566  14.191  41.517  1.00 44.95    -0.572 OA
HETATM   71  O5S SGN C   4       4.057  13.583  39.712  1.00 42.87    -0.572 OA
HETATM   72  O6S SGN C   4       3.180  14.049  41.892  1.00 40.27    -0.572 OA
ENDBRANCH  68  69
ENDBRANCH  67  68
ENDBRANCH   5  67
BRANCH   4  73
HETATM   73  O4  SGN C   4       4.513   8.859  42.324  1.00 25.89    -0.348 OA
BRANCH  73  74
HETATM   74  C1  BDP C   5       3.103   8.566  42.232  1.00 28.36     0.292 C 
HETATM   75  C2  BDP C   5       2.661   8.597  40.800  1.00 31.13     0.204 C 
HETATM   76  C3  BDP C   5       1.189   8.404  40.696  1.00 33.85     0.183 C 
HETATM   77  C4  BDP C   5       0.738   7.195  41.445  1.00 31.81     0.195 C 
HETATM   78  C5  BDP C   5       1.381   7.162  42.814  1.00 27.14     0.257 C 
HETATM   79  O5  BDP C   5       2.767   7.322  42.742  1.00 24.75    -0.340 OA
BRANCH  75  80
HETATM   80  O2  BDP C   5       2.983   9.812  40.212  1.00 34.37    -0.388 OA
ATOM     81  H2  BDP C   5       2.222  10.380  40.174  1.00  0.00     0.210 HD
ENDBRANCH  75  80
BRANCH  76  82
HETATM   82  O3  BDP C   5       0.875   8.274  39.356  1.00 34.34    -0.390 OA
ATOM     83  H3  BDP C   5      -0.027   7.983  39.296  1.00  0.00     0.210 HD
ENDBRANCH  76  82
BRANCH  77  84
HETATM   84  O4  BDP C   5      -0.644   7.244  41.625  1.00 33.34    -0.348 OA
BRANCH  84  85
HETATM   85  C1  NGY C   6      -1.405   6.944  40.432  1.00 35.33     0.286 C 
HETATM   86  C2  NGY C   6      -2.733   7.620  40.534  1.00 39.33     0.170 C 
HETATM   87  C3  NGY C   6      -3.497   6.990  41.646  1.00 39.13     0.177 C 
HETATM   88  C4  NGY C   6      -3.659   5.541  41.345  1.00 37.06     0.180 C 
HETATM   89  C5  NGY C   6      -2.292   4.951  41.228  1.00 32.98     0.181 C 
HETATM   90  O5  NGY C   6      -1.610   5.594  40.217  1.00 32.46    -0.349 OA
BRANCH  86  91
HETATM   91  N2  NGY C   6      -2.539   9.006  40.831  1.00 39.90    -0.349 N 
HETATM   92  C7  NGY C   6      -3.337  10.001  40.187  1.00 44.73     0.214 C 
HETATM   93  O7  NGY C   6      -4.192   9.674  39.376  1.00 46.19    -0.274 OA
HETATM   94  C8  NGY C   6      -3.116  11.440  40.514  1.00 43.79     0.117 C 
ATOM     95  H2  NGY C   6      -1.828   9.286  41.506  1.00  0.00     0.163 HD
ENDBRANCH  86  91
BRANCH  87  96
HETATM   96  O3  NGY C   6      -4.729   7.592  41.781  1.00 44.02    -0.391 OA
ATOM     97  H3  NGY C   6      -4.719   8.456  41.388  1.00  0.00     0.210 HD
ENDBRANCH  87  96
BRANCH  88  98
HETATM   98  O4  NGY C   6      -4.348   4.936  42.371  1.00 37.39    -0.390 OA
ATOM     99  H4  NGY C   6      -5.068   5.494  42.641  1.00  0.00     0.210 HD
ENDBRANCH  88  98
BRANCH  89 100
HETATM  100  C6  NGY C   6      -2.352   3.477  40.973  1.00 31.91     0.227 C 
BRANCH 100 101
HETATM  101  O6  NGY C   6      -3.217   3.167  39.940  1.00 36.15    -0.254 OA
BRANCH 101 102
HETATM  102  S   NGY C   6      -2.742   2.360  38.795  1.00 34.85     0.251 S 
HETATM  103  O7A NGY C   6      -3.591   2.564  37.650  1.00 33.41    -0.572 OA
HETATM  104  O8  NGY C   6      -2.802   0.970  39.243  1.00 30.21    -0.572 OA
HETATM  105  O9  NGY C   6      -1.391   2.752  38.470  1.00 38.01    -0.572 OA
ENDBRANCH 101 102
ENDBRANCH 100 101
ENDBRANCH  89 100
ENDBRANCH  84  85
ENDBRANCH  77  84
BRANCH  78 106
HETATM  106  C6  BDP C   5       1.048   5.921  43.586  1.00 29.31     0.206 C 
HETATM  107  O6A BDP C   5       0.966   4.820  42.988  1.00 32.10    -0.646 OA
HETATM  108  O6B BDP C   5       0.832   5.976  44.825  1.00 26.46    -0.646 OA
ENDBRANCH  78 106
ENDBRANCH  73  74
ENDBRANCH   4  73
TORSDOF 38
ENDMDL
MODEL 4
REMARK VINA RESULT:      -7.6      4.515      9.150
REMARK WARNING: 32 MAX_TORS EXCEEDED!!!
REMARK  38 active torsions:
REMARK  status: ('A' for Active; 'I' for Inactive)
REMARK    1  A    between atoms: C2_2  and  O2_3 
REMARK    2  A    between atoms: C3_5  and  O3_6 
REMARK    3  A    between atoms: C4_8  and  O4_9 
REMARK    4  A    between atoms: O4_9  and  C1_15 
REMARK    5  A    between atoms: C5_10  and  C6_12 
REMARK    6  A    between atoms: S1_17  and  N2_19 
REMARK    7  A    between atoms: C2_18  and  N2_19 
REMARK    8  A    between atoms: S2_22  and  O6_34 
REMARK    9  A    between atoms: C3_23  and  O3_24 
REMARK   10  A    between atoms: C4_27  and  O4_28 
REMARK   11  A    between atoms: O4_28  and  C1_36 
REMARK   12  A    between atoms: C5_30  and  C6_33 
REMARK   13  A    between atoms: C6_33  and  O6_34 
REMARK   14  A    between atoms: C2_38  and  O2_39 
REMARK   15  A    between atoms: O2_39  and  S_52 
REMARK   16  A    between atoms: C3_41  and  O3_42 
REMARK   17  A    between atoms: C4_45  and  O4_46 
REMARK   18  A    between atoms: O4_46  and  C1_53 
REMARK   19  A    between atoms: C5_47  and  C6_49 
REMARK   20  A    between atoms: S1_55  and  N2_57 
REMARK   21  A    between atoms: C2_56  and  N2_57 
REMARK   22  A    between atoms: S2_60  and  O6_72 
REMARK   23  A    between atoms: C3_61  and  O3_62 
REMARK   24  A    between atoms: C4_65  and  O4_66 
REMARK   25  A    between atoms: O4_66  and  C1_74 
REMARK   26  A    between atoms: C5_68  and  C6_71 
REMARK   27  A    between atoms: C6_71  and  O6_72 
REMARK   28  A    between atoms: C2_75  and  O2_76 
REMARK   29  A    between atoms: C3_78  and  O3_79 
REMARK   30  A    between atoms: C4_81  and  O4_82 
REMARK   31  A    between atoms: O4_82  and  C1_88 
REMARK   32  A    between atoms: C5_83  and  C6_85 
REMARK   33  A    between atoms: C2_89  and  N2_90 
REMARK       I    between atoms: N2_90  and  C7_102 
REMARK   34  A    between atoms: C3_92  and  O3_93 
REMARK   35  A    between atoms: C4_95  and  O4_96 
REMARK   36  A    between atoms: C5_98  and  C6_100 
REMARK   37  A    between atoms: C6_100  and  O6_101 
REMARK   38  A    between atoms: O6_101  and  S_108 
ROOT
HETATM    1  C1  SGN C   4      15.282  10.803  45.689  1.00 25.95     0.287 C 
HETATM    2  C2  SGN C   4      15.290   9.529  46.539  1.00 24.33     0.182 C 
HETATM    3  C3  SGN C   4      15.871   9.780  47.928  1.00 24.72     0.178 C 
HETATM    4  C4  SGN C   4      17.243  10.426  47.818  1.00 24.11     0.186 C 
HETATM    5  C5  SGN C   4      17.132  11.634  46.887  1.00 25.01     0.181 C 
HETATM    6  O5  SGN C   4      16.613  11.275  45.620  1.00 24.61    -0.349 OA
ENDROOT
BRANCH   1   7
HETATM    7  O4  IDS C   3      14.361  11.797  46.207  1.00 24.52    -0.348 OA
BRANCH   7   8
HETATM    8  C4  IDS C   3      13.505  12.265  45.207  1.00 32.57     0.195 C 
HETATM    9  C3  IDS C   3      12.148  11.621  45.268  1.00 36.22     0.185 C 
HETATM   10  C2  IDS C   3      11.134  12.341  46.129  1.00 37.49     0.231 C 
HETATM   11  C1  IDS C   3      11.258  13.831  46.038  1.00 32.35     0.294 C 
HETATM   12  O5  IDS C   3      12.566  14.188  46.266  1.00 29.95    -0.340 OA
HETATM   13  C5  IDS C   3      13.379  13.764  45.240  1.00 31.73     0.257 C 
BRANCH   9  14
HETATM   14  O3  IDS C   3      11.637  11.563  43.986  1.00 35.64    -0.390 OA
ATOM     15  H3  IDS C   3      12.349  11.324  43.405  1.00  0.00     0.210 HD
ENDBRANCH   9  14
BRANCH  10  16
HETATM   16  O2  IDS C   3      11.224  11.929  47.448  1.00 41.30    -0.244 OA
BRANCH  16  17
HETATM   17  S   IDS C   3       9.991  11.867  48.255  1.00 46.67     0.252 S 
HETATM   18  O1S IDS C   3       8.859  11.593  47.406  1.00 45.84    -0.572 OA
HETATM   19  O2S IDS C   3      10.193  10.788  49.231  1.00 43.53    -0.572 OA
HETATM   20  O3S IDS C   3       9.770  13.114  48.947  1.00 50.85    -0.572 OA
ENDBRANCH  16  17
ENDBRANCH  10  16
BRANCH  11  21
HETATM   21  O4  SGN C   2      10.699  14.298  44.786  1.00 35.63    -0.348 OA
BRANCH  21  22
HETATM   22  C4  SGN C   2       9.849  15.429  44.934  1.00 34.14     0.186 C 
HETATM   23  C3  SGN C   2       9.051  15.234  46.218  1.00 36.01     0.178 C 
HETATM   24  C2  SGN C   2       8.312  16.493  46.680  1.00 38.29     0.182 C 
HETATM   25  C1  SGN C   2       9.215  17.725  46.628  1.00 40.25     0.287 C 
HETATM   26  O5  SGN C   2       9.801  17.825  45.345  1.00 40.44    -0.349 OA
HETATM   27  C5  SGN C   2      10.653  16.724  45.039  1.00 39.12     0.181 C 
BRANCH  23  28
HETATM   28  O3  SGN C   2       8.126  14.186  46.051  1.00 37.94    -0.391 OA
ATOM     29  H3  SGN C   2       7.366  14.347  46.598  1.00  0.00     0.210 HD
ENDBRANCH  23  28
BRANCH  24  30
HETATM   30  N2  SGN C   2       7.860  16.246  48.037  1.00 38.07    -0.289 N 
ATOM     31  H2  SGN C   2       8.517  16.373  48.806  1.00  0.00     0.175 HD
BRANCH  30  32
HETATM   32  S1  SGN C   2       6.365  15.784  48.366  1.00 51.36     0.205 S 
HETATM   33  O1S SGN C   2       6.364  14.327  48.459  1.00 53.59    -0.578 OA
HETATM   34  O2S SGN C   2       6.004  16.386  49.646  1.00 50.52    -0.578 OA
HETATM   35  O3S SGN C   2       5.549  16.270  47.258  1.00 54.39    -0.578 OA
ENDBRANCH  30  32
ENDBRANCH  24  30
BRANCH  25  36
HETATM   36  O4  BDP C   1      10.191  17.635  47.691  1.00 42.04    -0.348 OA
BRANCH  36  37
HETATM   37  C4  BDP C   1      10.693  18.874  48.060  1.00 48.48     0.195 C 
HETATM   38  C3  BDP C   1       9.612  19.664  48.719  1.00 51.01     0.181 C 
HETATM   39  C2  BDP C   1      10.149  20.853  49.437  1.00 53.01     0.173 C 
HETATM   40  C1  BDP C   1      11.296  20.489  50.314  1.00 54.14     0.203 C 
HETATM   41  O5  BDP C   1      12.259  19.872  49.542  1.00 54.15    -0.370 OA
HETATM   42  C5  BDP C   1      11.841  18.658  49.012  1.00 51.87     0.253 C 
BRANCH  38  43
HETATM   43  O3  BDP C   1       8.720  20.111  47.764  1.00 52.92    -0.390 OA
ATOM     44  H3  BDP C   1       9.121  20.843  47.309  1.00  0.00     0.210 HD
ENDBRANCH  38  43
BRANCH  39  45
HETATM   45  O2  BDP C   1       9.153  21.395  50.226  1.00 53.19    -0.391 OA
ATOM     46  H2  BDP C   1       8.680  20.684  50.641  1.00  0.00     0.210 HD
ENDBRANCH  39  45
BRANCH  42  47
HETATM   47  C6  BDP C   1      13.011  17.990  48.355  1.00 51.57     0.205 C 
HETATM   48  O6A BDP C   1      13.368  18.345  47.202  1.00 52.65    -0.646 OA
HETATM   49  O6B BDP C   1      13.630  17.068  48.952  1.00 51.09    -0.646 OA
ENDBRANCH  42  47
ENDBRANCH  36  37
ENDBRANCH  25  36
BRANCH  27  50
HETATM   50  C6  SGN C   2      11.442  17.023  43.768  1.00 42.92     0.227 C 
BRANCH  50  51
HETATM   51  O6  SGN C   2      12.825  17.040  44.043  1.00 46.75    -0.254 OA
BRANCH  51  52
HETATM   52  S2  SGN C   2      13.859  17.098  42.870  1.00 56.56     0.251 S 
HETATM   53  O4S SGN C   2      15.167  17.367  43.466  1.00 58.52    -0.572 OA
HETATM   54  O5S SGN C   2      13.834  15.815  42.178  1.00 53.95    -0.572 OA
HETATM   55  O6S SGN C   2      13.435  18.168  41.978  1.00 54.13    -0.572 OA
ENDBRANCH  51  52
ENDBRANCH  50  51
ENDBRANCH  27  50
ENDBRANCH  21  22
ENDBRANCH  11  21
BRANCH  13  56
HETATM   56  C6  IDS C   3      14.729  14.378  45.434  1.00 33.29     0.206 C 
HETATM   57  O6A IDS C   3      14.989  15.027  46.480  1.00 34.35    -0.646 OA
HETATM   58  O6B IDS C   3      15.608  14.253  44.539  1.00 34.80    -0.646 OA
ENDBRANCH  13  56
ENDBRANCH   7   8
ENDBRANCH   1   7
BRANCH   2  59
HETATM   59  N2  SGN C   4      13.959   8.963  46.662  1.00 24.47    -0.289 N 
ATOM     60  H2  SGN C   4      13.149   9.548  46.871  1.00  0.00     0.175 HD
BRANCH  59  61
HETATM   61  S1  SGN C   4      13.813   7.386  46.456  1.00 23.01     0.205 S 
HETATM   62  O1S SGN C   4      14.926   6.928  45.644  1.00 23.82    -0.578 OA
HETATM   63  O2S SGN C   4      13.849   6.757  47.772  1.00 21.15    -0.578 OA
HETATM   64  O3S SGN C   4      12.523   7.203  45.795  1.00 24.34    -0.578 OA
ENDBRANCH  59  61
ENDBRANCH   2  59
BRANCH   3  65
HETATM   65  O3  SGN C   4      15.964   8.557  48.631  1.00 24.01    -0.391 OA
ATOM     66  H3  SGN C   4      16.110   8.731  49.553  1.00  0.00     0.210 HD
ENDBRANCH   3  65
BRANCH   5  67
HETATM   67  C6  SGN C   4      18.477  12.314  46.664  1.00 29.42     0.227 C 
BRANCH  67  68
HETATM   68  O6  SGN C   4      19.041  11.905  45.438  1.00 33.38    -0.254 OA
BRANCH  68  69
HETATM   69  S2  SGN C   4      20.161  10.806  45.471  1.00 42.75     0.251 S 
HETATM   70  O4S SGN C   4      21.173  11.178  44.491  1.00 44.95    -0.572 OA
HETATM   71  O5S SGN C   4      20.665  10.794  46.836  1.00 42.87    -0.572 OA
HETATM   72  O6S SGN C   4      19.523   9.535  45.149  1.00 40.27    -0.572 OA
ENDBRANCH  68  69
ENDBRANCH  67  68
ENDBRANCH   5  67
BRANCH   4  73
HETATM   73  O4  SGN C   4      17.625  10.846  49.120  1.00 25.89    -0.348 OA
BRANCH  73  74
HETATM   74  C1  BDP C   5      16.887  11.986  49.609  1.00 28.36     0.292 C 
HETATM   75  C2  BDP C   5      16.080  11.602  50.811  1.00 31.13     0.204 C 
HETATM   76  C3  BDP C   5      15.231  12.737  51.265  1.00 33.85     0.183 C 
HETATM   77  C4  BDP C   5      16.029  13.985  51.442  1.00 31.81     0.195 C 
HETATM   78  C5  BDP C   5      16.944  14.190  50.255  1.00 27.14     0.257 C 
HETATM   79  O5  BDP C   5      17.699  13.047  49.977  1.00 24.75    -0.340 OA
BRANCH  75  80
HETATM   80  O2  BDP C   5      15.252  10.526  50.525  1.00 34.37    -0.388 OA
ATOM     81  H2  BDP C   5      15.206   9.930  51.264  1.00  0.00     0.210 HD
ENDBRANCH  75  80
BRANCH  76  82
HETATM   82  O3  BDP C   5      14.648  12.374  52.464  1.00 34.34    -0.390 OA
ATOM     83  H3  BDP C   5      14.132  13.111  52.771  1.00  0.00     0.210 HD
ENDBRANCH  76  82
BRANCH  77  84
HETATM   84  O4  BDP C   5      15.172  15.083  51.512  1.00 33.34    -0.348 OA
BRANCH  84  85
HETATM   85  C1  NGY C   6      14.641  15.333  52.834  1.00 35.33     0.286 C 
HETATM   86  C2  NGY C   6      13.620  16.418  52.737  1.00 39.33     0.170 C 
HETATM   87  C3  NGY C   6      14.308  17.681  52.354  1.00 39.13     0.177 C 
HETATM   88  C4  NGY C   6      15.324  17.998  53.395  1.00 37.06     0.180 C 
HETATM   89  C5  NGY C   6      16.284  16.856  53.449  1.00 32.98     0.181 C 
HETATM   90  O5  NGY C   6      15.594  15.704  53.764  1.00 32.46    -0.349 OA
BRANCH  86  91
HETATM   91  N2  NGY C   6      12.665  16.083  51.725  1.00 39.90    -0.349 N 
HETATM   92  C7  NGY C   6      11.289  16.428  51.887  1.00 44.73     0.214 C 
HETATM   93  O7  NGY C   6      10.915  17.011  52.895  1.00 46.19    -0.274 OA
HETATM   94  C8  NGY C   6      10.314  16.067  50.816  1.00 43.79     0.117 C 
ATOM     95  H2  NGY C   6      12.970  15.597  50.882  1.00  0.00     0.163 HD
ENDBRANCH  86  91
BRANCH  87  96
HETATM   96  O3  NGY C   6      13.397  18.709  52.245  1.00 44.02    -0.391 OA
ATOM     97  H3  NGY C   6      13.385  19.225  53.042  1.00  0.00     0.210 HD
ENDBRANCH  87  96
BRANCH  88  98
HETATM   98  O4  NGY C   6      15.986  19.155  53.050  1.00 37.39    -0.390 OA
ATOM     99  H4  NGY C   6      16.911  19.059  53.242  1.00  0.00     0.210 HD
ENDBRANCH  88  98
BRANCH  89 100
HETATM  100  C6  NGY C   6      17.378  17.106  54.440  1.00 31.91     0.227 C 
BRANCH 100 101
HETATM  101  O6  NGY C   6      16.917  17.773  55.559  1.00 36.15    -0.254 OA
BRANCH 101 102
HETATM  102  S   NGY C   6      17.749  18.823  56.188  1.00 34.85     0.251 S 
HETATM  103  O7A NGY C   6      18.932  18.246  56.771  1.00 33.41    -0.572 OA
HETATM  104  O8  NGY C   6      16.906  19.426  57.219  1.00 30.21    -0.572 OA
HETATM  105  O9  NGY C   6      18.128  19.790  55.185  1.00 38.01    -0.572 OA
ENDBRANCH 101 102
ENDBRANCH 100 101
ENDBRANCH  89 100
ENDBRANCH  84  85
ENDBRANCH  77  84
BRANCH  78 106
HETATM  106  C6  BDP C   5      17.848  15.375  50.411  1.00 29.31     0.206 C 
HETATM  107  O6A BDP C   5      17.588  16.441  49.799  1.00 32.10    -0.646 OA
HETATM  108  O6B BDP C   5      18.875  15.306  51.135  1.00 26.46    -0.646 OA
ENDBRANCH  78 106
ENDBRANCH  73  74
ENDBRANCH   4  73
TORSDOF 38
ENDMDL
MODEL 5
REMARK VINA RESULT:      -7.2      3.952     16.501
REMARK WARNING: 32 MAX_TORS EXCEEDED!!!
REMARK  38 active torsions:
REMARK  status: ('A' for Active; 'I' for Inactive)
REMARK    1  A    between atoms: C2_2  and  O2_3 
REMARK    2  A    between atoms: C3_5  and  O3_6 
REMARK    3  A    between atoms: C4_8  and  O4_9 
REMARK    4  A    between atoms: O4_9  and  C1_15 
REMARK    5  A    between atoms: C5_10  and  C6_12 
REMARK    6  A    between atoms: S1_17  and  N2_19 
REMARK    7  A    between atoms: C2_18  and  N2_19 
REMARK    8  A    between atoms: S2_22  and  O6_34 
REMARK    9  A    between atoms: C3_23  and  O3_24 
REMARK   10  A    between atoms: C4_27  and  O4_28 
REMARK   11  A    between atoms: O4_28  and  C1_36 
REMARK   12  A    between atoms: C5_30  and  C6_33 
REMARK   13  A    between atoms: C6_33  and  O6_34 
REMARK   14  A    between atoms: C2_38  and  O2_39 
REMARK   15  A    between atoms: O2_39  and  S_52 
REMARK   16  A    between atoms: C3_41  and  O3_42 
REMARK   17  A    between atoms: C4_45  and  O4_46 
REMARK   18  A    between atoms: O4_46  and  C1_53 
REMARK   19  A    between atoms: C5_47  and  C6_49 
REMARK   20  A    between atoms: S1_55  and  N2_57 
REMARK   21  A    between atoms: C2_56  and  N2_57 
REMARK   22  A    between atoms: S2_60  and  O6_72 
REMARK   23  A    between atoms: C3_61  and  O3_62 
REMARK   24  A    between atoms: C4_65  and  O4_66 
REMARK   25  A    between atoms: O4_66  and  C1_74 
REMARK   26  A    between atoms: C5_68  and  C6_71 
REMARK   27  A    between atoms: C6_71  and  O6_72 
REMARK   28  A    between atoms: C2_75  and  O2_76 
REMARK   29  A    between atoms: C3_78  and  O3_79 
REMARK   30  A    between atoms: C4_81  and  O4_82 
REMARK   31  A    between atoms: O4_82  and  C1_88 
REMARK   32  A    between atoms: C5_83  and  C6_85 
REMARK   33  A    between atoms: C2_89  and  N2_90 
REMARK       I    between atoms: N2_90  and  C7_102 
REMARK   34  A    between atoms: C3_92  and  O3_93 
REMARK   35  A    between atoms: C4_95  and  O4_96 
REMARK   36  A    between atoms: C5_98  and  C6_100 
REMARK   37  A    between atoms: C6_100  and  O6_101 
REMARK   38  A    between atoms: O6_101  and  S_108 
ROOT
HETATM    1  C1  SGN C   4       6.914  14.548  49.642  1.00 25.95     0.287 C 
HETATM    2  C2  SGN C   4       6.346  14.924  51.014  1.00 24.33     0.182 C 
HETATM    3  C3  SGN C   4       5.781  13.710  51.744  1.00 24.72     0.178 C 
HETATM    4  C4  SGN C   4       4.772  12.987  50.866  1.00 24.11     0.186 C 
HETATM    5  C5  SGN C   4       5.416  12.734  49.503  1.00 25.01     0.181 C 
HETATM    6  O5  SGN C   4       5.873  13.934  48.907  1.00 24.61    -0.349 OA
ENDROOT
BRANCH   1   7
HETATM    7  O4  IDS C   3       8.091  13.708  49.753  1.00 24.52    -0.348 OA
BRANCH   7   8
HETATM    8  C4  IDS C   3       8.971  13.926  48.690  1.00 32.57     0.195 C 
HETATM    9  C3  IDS C   3       9.569  15.305  48.715  1.00 36.22     0.185 C 
HETATM   10  C2  IDS C   3      10.863  15.430  49.489  1.00 37.49     0.231 C 
HETATM   11  C1  IDS C   3      11.745  14.230  49.331  1.00 32.35     0.294 C 
HETATM   12  O5  IDS C   3      11.015  13.097  49.605  1.00 29.95    -0.340 OA
HETATM   13  C5  IDS C   3      10.056  12.883  48.642  1.00 31.73     0.257 C 
BRANCH   9  14
HETATM   14  O3  IDS C   3       9.824  15.693  47.414  1.00 35.64    -0.390 OA
ATOM     15  H3  IDS C   3      10.564  15.183  47.105  1.00  0.00     0.210 HD
ENDBRANCH   9  14
BRANCH  10  16
HETATM   16  O2  IDS C   3      10.616  15.674  50.829  1.00 41.30    -0.244 OA
BRANCH  16  17
HETATM   17  S   IDS C   3      11.265  16.834  51.468  1.00 46.67     0.252 S 
HETATM   18  O1S IDS C   3      10.883  18.047  50.790  1.00 45.84    -0.572 OA
HETATM   19  O2S IDS C   3      10.809  16.842  52.864  1.00 43.53    -0.572 OA
HETATM   20  O3S IDS C   3      12.701  16.704  51.426  1.00 50.85    -0.572 OA
ENDBRANCH  16  17
ENDBRANCH  10  16
BRANCH  11  21
HETATM   21  O4  SGN C   2      12.384  14.254  48.030  1.00 35.63    -0.348 OA
BRANCH  21  22
HETATM   22  C4  SGN C   2      13.659  13.624  48.017  1.00 34.14     0.186 C 
HETATM   23  C3  SGN C   2      13.469  12.222  47.446  1.00 36.01     0.178 C 
HETATM   24  C2  SGN C   2      14.782  11.523  47.085  1.00 38.29     0.182 C 
HETATM   25  C1  SGN C   2      15.716  12.448  46.305  1.00 40.25     0.287 C 
HETATM   26  O5  SGN C   2      15.872  13.664  47.011  1.00 40.44    -0.349 OA
HETATM   27  C5  SGN C   2      14.652  14.388  47.141  1.00 39.12     0.181 C 
BRANCH  23  28
HETATM   28  O3  SGN C   2      12.754  11.427  48.361  1.00 37.94    -0.391 OA
ATOM     29  H3  SGN C   2      12.797  11.824  49.223  1.00  0.00     0.210 HD
ENDBRANCH  23  28
BRANCH  24  30
HETATM   30  N2  SGN C   2      14.439  10.356  46.293  1.00 38.07    -0.289 N 
ATOM     31  H2  SGN C   2      13.911  10.485  45.430  1.00  0.00     0.175 HD
BRANCH  30  32
HETATM   32  S1  SGN C   2      14.860   8.877  46.729  1.00 51.36     0.205 S 
HETATM   33  O1S SGN C   2      13.673   8.033  46.635  1.00 53.59    -0.578 OA
HETATM   34  O2S SGN C   2      15.887   8.433  45.792  1.00 50.52    -0.578 OA
HETATM   35  O3S SGN C   2      15.351   8.994  48.098  1.00 54.39    -0.578 OA
ENDBRANCH  30  32
ENDBRANCH  24  30
BRANCH  25  36
HETATM   36  O4  BDP C   1      15.186  12.632  44.972  1.00 42.04    -0.348 OA
BRANCH  36  37
HETATM   37  C4  BDP C   1      15.929  13.531  44.222  1.00 48.48     0.195 C 
HETATM   38  C3  BDP C   1      17.280  12.952  43.963  1.00 51.01     0.181 C 
HETATM   39  C2  BDP C   1      18.009  13.693  42.895  1.00 53.01     0.173 C 
HETATM   40  C1  BDP C   1      17.157  13.889  41.689  1.00 54.14     0.203 C 
HETATM   41  O5  BDP C   1      15.999  14.535  42.070  1.00 54.15    -0.370 OA
HETATM   42  C5  BDP C   1      15.206  13.780  42.923  1.00 51.87     0.253 C 
BRANCH  38  43
HETATM   43  O3  BDP C   1      18.038  13.014  45.116  1.00 52.92    -0.390 OA
ATOM     44  H3  BDP C   1      17.906  12.205  45.596  1.00  0.00     0.210 HD
ENDBRANCH  38  43
BRANCH  39  45
HETATM   45  O2  BDP C   1      19.128  12.974  42.526  1.00 53.19    -0.391 OA
ATOM     46  H2  BDP C   1      18.946  12.050  42.652  1.00  0.00     0.210 HD
ENDBRANCH  39  45
BRANCH  42  47
HETATM   47  C6  BDP C   1      13.900  14.489  43.123  1.00 51.57     0.205 C 
HETATM   48  O6A BDP C   1      13.872  15.589  43.733  1.00 52.65    -0.646 OA
HETATM   49  O6B BDP C   1      12.832  13.980  42.689  1.00 51.09    -0.646 OA
ENDBRANCH  42  47
ENDBRANCH  36  37
ENDBRANCH  25  36
BRANCH  27  50
HETATM   50  C6  SGN C   2      14.940  15.787  47.677  1.00 42.92     0.227 C 
BRANCH  50  51
HETATM   51  O6  SGN C   2      14.933  15.782  49.087  1.00 46.75    -0.254 OA
BRANCH  51  52
HETATM   52  S2  SGN C   2      16.282  15.825  49.880  1.00 56.56     0.251 S 
HETATM   53  O4S SGN C   2      16.468  14.505  50.480  1.00 58.52    -0.572 OA
HETATM   54  O5S SGN C   2      17.350  16.149  48.943  1.00 53.95    -0.572 OA
HETATM   55  O6S SGN C   2      16.152  16.870  50.887  1.00 54.13    -0.572 OA
ENDBRANCH  51  52
ENDBRANCH  50  51
ENDBRANCH  27  50
ENDBRANCH  21  22
ENDBRANCH  11  21
BRANCH  13  56
HETATM   56  C6  IDS C   3       9.461  11.530  48.872  1.00 33.29     0.206 C 
HETATM   57  O6A IDS C   3       8.434  11.171  48.240  1.00 34.35    -0.646 OA
HETATM   58  O6B IDS C   3       9.986  10.750  49.711  1.00 34.80    -0.646 OA
ENDBRANCH  13  56
ENDBRANCH   7   8
ENDBRANCH   1   7
BRANCH   2  59
HETATM   59  N2  SGN C   4       7.346  15.572  51.844  1.00 24.47    -0.289 N 
ATOM     60  H2  SGN C   4       8.218  15.101  52.090  1.00  0.00     0.175 HD
BRANCH  59  61
HETATM   61  S1  SGN C   4       7.027  17.051  52.355  1.00 23.01     0.205 S 
HETATM   62  O1S SGN C   4       5.588  17.179  52.506  1.00 23.82    -0.578 OA
HETATM   63  O2S SGN C   4       7.693  17.233  53.641  1.00 21.15    -0.578 OA
HETATM   64  O3S SGN C   4       7.565  17.937  51.327  1.00 24.34    -0.578 OA
ENDBRANCH  59  61
ENDBRANCH   2  59
BRANCH   3  65
HETATM   65  O3  SGN C   4       5.168  14.125  52.950  1.00 24.01    -0.391 OA
ATOM     66  H3  SGN C   4       5.191  15.073  53.007  1.00  0.00     0.210 HD
ENDBRANCH   3  65
BRANCH   5  67
HETATM   67  C6  SGN C   4       4.456  12.065  48.528  1.00 29.42     0.227 C 
BRANCH  67  68
HETATM   68  O6  SGN C   4       5.111  11.040  47.814  1.00 33.38    -0.254 OA
BRANCH  68  69
HETATM   69  S2  SGN C   4       4.876   9.557  48.270  1.00 42.75     0.251 S 
HETATM   70  O4S SGN C   4       5.361   8.687  47.206  1.00 44.95    -0.572 OA
HETATM   71  O5S SGN C   4       5.616   9.403  49.515  1.00 42.87    -0.572 OA
HETATM   72  O6S SGN C   4       3.445   9.400  48.501  1.00 40.27    -0.572 OA
ENDBRANCH  68  69
ENDBRANCH  67  68
ENDBRANCH   5  67
BRANCH   4  73
HETATM   73  O4  SGN C   4       4.461  11.752  51.497  1.00 25.89    -0.348 OA
BRANCH  73  74
HETATM   74  C1  BDP C   5       3.104  11.664  51.978  1.00 28.36     0.292 C 
HETATM   75  C2  BDP C   5       2.828  10.285  52.495  1.00 31.13     0.204 C 
HETATM   76  C3  BDP C   5       1.402  10.145  52.897  1.00 33.85     0.183 C 
HETATM   77  C4  BDP C   5       0.981  11.237  53.822  1.00 31.81     0.195 C 
HETATM   78  C5  BDP C   5       1.462  12.573  53.303  1.00 27.14     0.257 C 
HETATM   79  O5  BDP C   5       2.827  12.554  53.004  1.00 24.75    -0.340 OA
BRANCH  75  80
HETATM   80  O2  BDP C   5       3.103   9.332  51.525  1.00 34.37    -0.388 OA
ATOM     81  H2  BDP C   5       3.893   9.555  51.047  1.00  0.00     0.210 HD
ENDBRANCH  75  80
BRANCH  76  82
HETATM   82  O3  BDP C   5       1.257   8.917  53.516  1.00 34.34    -0.390 OA
ATOM     83  H3  BDP C   5       2.090   8.694  53.915  1.00  0.00     0.210 HD
ENDBRANCH  76  82
BRANCH  77  84
HETATM   84  O4  BDP C   5      -0.412  11.283  53.889  1.00 33.34    -0.348 OA
BRANCH  84  85
HETATM   85  C1  NGY C   6      -0.984  10.404  54.885  1.00 35.33     0.286 C 
HETATM   86  C2  NGY C   6      -2.471  10.505  54.807  1.00 39.33     0.170 C 
HETATM   87  C3  NGY C   6      -2.873  11.875  55.228  1.00 39.13     0.177 C 
HETATM   88  C4  NGY C   6      -2.397  12.100  56.620  1.00 37.06     0.180 C 
HETATM   89  C5  NGY C   6      -0.911  11.951  56.616  1.00 32.98     0.181 C 
HETATM   90  O5  NGY C   6      -0.588  10.683  56.179  1.00 32.46    -0.349 OA
BRANCH  86  91
HETATM   91  N2  NGY C   6      -2.893  10.291  53.457  1.00 39.90    -0.349 N 
HETATM   92  C7  NGY C   6      -4.103   9.585  53.180  1.00 44.73     0.214 C 
HETATM   93  O7  NGY C   6      -4.789   9.156  54.098  1.00 46.19    -0.274 OA
HETATM   94  C8  NGY C   6      -4.520   9.375  51.763  1.00 43.79     0.117 C 
ATOM     95  H2  NGY C   6      -2.326  10.645  52.686  1.00  0.00     0.163 HD
ENDBRANCH  86  91
BRANCH  87  96
HETATM   96  O3  NGY C   6      -4.243  12.013  55.162  1.00 44.02    -0.391 OA
ATOM     97  H3  NGY C   6      -4.632  11.858  56.014  1.00  0.00     0.210 HD
ENDBRANCH  87  96
BRANCH  88  98
HETATM   98  O4  NGY C   6      -2.743  13.370  57.022  1.00 37.39    -0.390 OA
ATOM     99  H4  NGY C   6      -1.956  13.871  57.197  1.00  0.00     0.210 HD
ENDBRANCH  88  98
BRANCH  89 100
HETATM  100  C6  NGY C   6      -0.331  12.208  57.972  1.00 31.91     0.227 C 
BRANCH 100 101
HETATM  101  O6  NGY C   6       0.267  13.452  58.049  1.00 36.15    -0.254 OA
BRANCH 101 102
HETATM  102  S   NGY C   6      -0.191  14.431  59.060  1.00 34.85     0.251 S 
HETATM  103  O7A NGY C   6      -1.435  14.004  59.646  1.00 33.41    -0.572 OA
HETATM  104  O8  NGY C   6      -0.365  15.689  58.336  1.00 30.21    -0.572 OA
HETATM  105  O9  NGY C   6       0.812  14.550  60.091  1.00 38.01    -0.572 OA
ENDBRANCH 101 102
ENDBRANCH 100 101
ENDBRANCH  89 100
ENDBRANCH  84  85
ENDBRANCH  77  84
BRANCH  78 106
HETATM  106  C6  BDP C   5       1.159  13.707  54.235  1.00 29.31     0.206 C 
HETATM  107  O6A BDP C   5       1.888  13.898  55.240  1.00 32.10    -0.646 OA
HETATM  108  O6B BDP C   5       0.169  14.456  54.031  1.00 26.46    -0.646 OA
ENDBRANCH  78 106
ENDBRANCH  73  74
ENDBRANCH   4  73
TORSDOF 38
ENDMDL
MODEL 6
REMARK VINA RESULT:      -7.2      3.783     16.327
REMARK WARNING: 32 MAX_TORS EXCEEDED!!!
REMARK  38 active torsions:
REMARK  status: ('A' for Active; 'I' for Inactive)
REMARK    1  A    between atoms: C2_2  and  O2_3 
REMARK    2  A    between atoms: C3_5  and  O3_6 
REMARK    3  A    between atoms: C4_8  and  O4_9 
REMARK    4  A    between atoms: O4_9  and  C1_15 
REMARK    5  A    between atoms: C5_10  and  C6_12 
REMARK    6  A    between atoms: S1_17  and  N2_19 
REMARK    7  A    between atoms: C2_18  and  N2_19 
REMARK    8  A    between atoms: S2_22  and  O6_34 
REMARK    9  A    between atoms: C3_23  and  O3_24 
REMARK   10  A    between atoms: C4_27  and  O4_28 
REMARK   11  A    between atoms: O4_28  and  C1_36 
REMARK   12  A    between atoms: C5_30  and  C6_33 
REMARK   13  A    between atoms: C6_33  and  O6_34 
REMARK   14  A    between atoms: C2_38  and  O2_39 
REMARK   15  A    between atoms: O2_39  and  S_52 
REMARK   16  A    between atoms: C3_41  and  O3_42 
REMARK   17  A    between atoms: C4_45  and  O4_46 
REMARK   18  A    between atoms: O4_46  and  C1_53 
REMARK   19  A    between atoms: C5_47  and  C6_49 
REMARK   20  A    between atoms: S1_55  and  N2_57 
REMARK   21  A    between atoms: C2_56  and  N2_57 
REMARK   22  A    between atoms: S2_60  and  O6_72 
REMARK   23  A    between atoms: C3_61  and  O3_62 
REMARK   24  A    between atoms: C4_65  and  O4_66 
REMARK   25  A    between atoms: O4_66  and  C1_74 
REMARK   26  A    between atoms: C5_68  and  C6_71 
REMARK   27  A    between atoms: C6_71  and  O6_72 
REMARK   28  A    between atoms: C2_75  and  O2_76 
REMARK   29  A    between atoms: C3_78  and  O3_79 
REMARK   30  A    between atoms: C4_81  and  O4_82 
REMARK   31  A    between atoms: O4_82  and  C1_88 
REMARK   32  A    between atoms: C5_83  and  C6_85 
REMARK   33  A    between atoms: C2_89  and  N2_90 
REMARK       I    between atoms: N2_90  and  C7_102 
REMARK   34  A    between atoms: C3_92  and  O3_93 
REMARK   35  A    between atoms: C4_95  and  O4_96 
REMARK   36  A    between atoms: C5_98  and  C6_100 
REMARK   37  A    between atoms: C6_100  and  O6_101 
REMARK   38  A    between atoms: O6_101  and  S_108 
ROOT
HETATM    1  C1  SGN C   4       6.836  14.371  49.133  1.00 25.95     0.287 C 
HETATM    2  C2  SGN C   4       6.211  14.961  50.401  1.00 24.33     0.182 C 
HETATM    3  C3  SGN C   4       5.708  13.871  51.343  1.00 24.72     0.178 C 
HETATM    4  C4  SGN C   4       4.771  12.926  50.607  1.00 24.11     0.186 C 
HETATM    5  C5  SGN C   4       5.464  12.465  49.324  1.00 25.01     0.181 C 
HETATM    6  O5  SGN C   4       5.856  13.559  48.516  1.00 24.61    -0.349 OA
ENDROOT
BRANCH   1   7
HETATM    7  O4  IDS C   3       8.063  13.651  49.416  1.00 24.52    -0.348 OA
BRANCH   7   8
HETATM    8  C4  IDS C   3       9.058  13.959  48.485  1.00 32.57     0.195 C 
HETATM    9  C3  IDS C   3       9.567  15.365  48.636  1.00 36.22     0.185 C 
HETATM   10  C2  IDS C   3      10.742  15.526  49.575  1.00 37.49     0.231 C 
HETATM   11  C1  IDS C   3      11.704  14.380  49.491  1.00 32.35     0.294 C 
HETATM   12  O5  IDS C   3      11.012  13.200  49.628  1.00 29.95    -0.340 OA
HETATM   13  C5  IDS C   3      10.197  12.978  48.542  1.00 31.73     0.257 C 
BRANCH   9  14
HETATM   14  O3  IDS C   3       9.964  15.820  47.393  1.00 35.64    -0.390 OA
ATOM     15  H3  IDS C   3       9.290  16.408  47.075  1.00  0.00     0.210 HD
ENDBRANCH   9  14
BRANCH  10  16
HETATM   16  O2  IDS C   3      10.312  15.700  50.879  1.00 41.30    -0.244 OA
BRANCH  16  17
HETATM   17  S   IDS C   3      10.840  16.840  51.651  1.00 46.67     0.252 S 
HETATM   18  O1S IDS C   3      10.014  17.077  52.808  1.00 45.84    -0.572 OA
HETATM   19  O2S IDS C   3      12.207  16.473  52.043  1.00 43.53    -0.572 OA
HETATM   20  O3S IDS C   3      10.870  18.035  50.842  1.00 50.85    -0.572 OA
ENDBRANCH  16  17
ENDBRANCH  10  16
BRANCH  11  21
HETATM   21  O4  SGN C   2      12.502  14.492  48.286  1.00 35.63    -0.348 OA
BRANCH  21  22
HETATM   22  C4  SGN C   2      13.890  14.278  48.507  1.00 34.14     0.186 C 
HETATM   23  C3  SGN C   2      14.146  12.779  48.390  1.00 36.01     0.178 C 
HETATM   24  C2  SGN C   2      15.630  12.414  48.304  1.00 38.29     0.182 C 
HETATM   25  C1  SGN C   2      16.371  13.304  47.307  1.00 40.25     0.287 C 
HETATM   26  O5  SGN C   2      16.117  14.662  47.609  1.00 40.44    -0.349 OA
HETATM   27  C5  SGN C   2      14.742  15.011  47.472  1.00 39.12     0.181 C 
BRANCH  23  28
HETATM   28  O3  SGN C   2      13.564  12.109  49.483  1.00 37.94    -0.391 OA
ATOM     29  H3  SGN C   2      12.787  12.579  49.762  1.00  0.00     0.210 HD
ENDBRANCH  23  28
BRANCH  24  30
HETATM   30  N2  SGN C   2      15.701  11.022  47.900  1.00 38.07    -0.289 N 
ATOM     31  H2  SGN C   2      15.394  10.765  46.961  1.00  0.00     0.175 HD
BRANCH  30  32
HETATM   32  S1  SGN C   2      16.246   9.878  48.875  1.00 51.36     0.205 S 
HETATM   33  O1S SGN C   2      15.572   8.634  48.517  1.00 53.59    -0.578 OA
HETATM   34  O2S SGN C   2      17.684   9.772  48.646  1.00 50.52    -0.578 OA
HETATM   35  O3S SGN C   2      15.915  10.321  50.225  1.00 54.39    -0.578 OA
ENDBRANCH  30  32
ENDBRANCH  24  30
BRANCH  25  36
HETATM   36  O4  BDP C   1      15.971  12.938  45.966  1.00 42.04    -0.348 OA
BRANCH  36  37
HETATM   37  C4  BDP C   1      16.866  13.380  45.003  1.00 48.48     0.195 C 
HETATM   38  C3  BDP C   1      18.077  12.508  45.024  1.00 51.01     0.181 C 
HETATM   39  C2  BDP C   1      18.924  12.702  43.813  1.00 53.01     0.173 C 
HETATM   40  C1  BDP C   1      18.113  12.638  42.566  1.00 54.14     0.203 C 
HETATM   41  O5  BDP C   1      17.106  13.577  42.648  1.00 54.15    -0.370 OA
HETATM   42  C5  BDP C   1      16.191  13.311  43.658  1.00 51.87     0.253 C 
BRANCH  38  43
HETATM   43  O3  BDP C   1      18.845  12.810  46.132  1.00 52.92    -0.390 OA
ATOM     44  H3  BDP C   1      19.705  12.426  46.004  1.00  0.00     0.210 HD
ENDBRANCH  38  43
BRANCH  39  45
HETATM   45  O2  BDP C   1      19.879  11.705  43.763  1.00 53.19    -0.391 OA
ATOM     46  H2  BDP C   1      20.259  11.698  42.893  1.00  0.00     0.210 HD
ENDBRANCH  39  45
BRANCH  42  47
HETATM   47  C6  BDP C   1      15.049  14.276  43.542  1.00 51.57     0.205 C 
HETATM   48  O6A BDP C   1      13.875  13.843  43.404  1.00 52.65    -0.646 OA
HETATM   49  O6B BDP C   1      15.265  15.517  43.573  1.00 51.09    -0.646 OA
ENDBRANCH  42  47
ENDBRANCH  36  37
ENDBRANCH  25  36
BRANCH  27  50
HETATM   50  C6  SGN C   2      14.586  16.526  47.559  1.00 42.92     0.227 C 
BRANCH  50  51
HETATM   51  O6  SGN C   2      14.152  17.045  46.321  1.00 46.75    -0.254 OA
BRANCH  51  52
HETATM   52  S2  SGN C   2      12.742  17.712  46.199  1.00 56.56     0.251 S 
HETATM   53  O4S SGN C   2      12.213  17.845  47.555  1.00 58.52    -0.572 OA
HETATM   54  O5S SGN C   2      12.907  19.009  45.554  1.00 53.95    -0.572 OA
HETATM   55  O6S SGN C   2      11.922  16.833  45.376  1.00 54.13    -0.572 OA
ENDBRANCH  51  52
ENDBRANCH  50  51
ENDBRANCH  27  50
ENDBRANCH  21  22
ENDBRANCH  11  21
BRANCH  13  56
HETATM   56  C6  IDS C   3       9.656  11.586  48.646  1.00 33.29     0.206 C 
HETATM   57  O6A IDS C   3       8.781  11.182  47.837  1.00 34.35    -0.646 OA
HETATM   58  O6B IDS C   3      10.072  10.819  49.554  1.00 34.80    -0.646 OA
ENDBRANCH  13  56
ENDBRANCH   7   8
ENDBRANCH   1   7
BRANCH   2  59
HETATM   59  N2  SGN C   4       7.146  15.821  51.104  1.00 24.47    -0.289 N 
ATOM     60  H2  SGN C   4       8.068  15.487  51.385  1.00  0.00     0.175 HD
BRANCH  59  61
HETATM   61  S1  SGN C   4       6.671  17.314  51.419  1.00 23.01     0.205 S 
HETATM   62  O1S SGN C   4       6.846  17.557  52.839  1.00 23.82    -0.578 OA
HETATM   63  O2S SGN C   4       7.506  18.222  50.639  1.00 21.15    -0.578 OA
HETATM   64  O3S SGN C   4       5.270  17.365  51.009  1.00 24.34    -0.578 OA
ENDBRANCH  59  61
ENDBRANCH   2  59
BRANCH   3  65
HETATM   65  O3  SGN C   4       5.040  14.464  52.439  1.00 24.01    -0.391 OA
ATOM     66  H3  SGN C   4       5.412  15.321  52.613  1.00  0.00     0.210 HD
ENDBRANCH   3  65
BRANCH   5  67
HETATM   67  C6  SGN C   4       4.574  11.559  48.484  1.00 29.42     0.227 C 
BRANCH  67  68
HETATM   68  O6  SGN C   4       5.255  11.136  47.323  1.00 33.38    -0.254 OA
BRANCH  68  69
HETATM   69  S2  SGN C   4       5.327   9.595  47.030  1.00 42.75     0.251 S 
HETATM   70  O4S SGN C   4       5.328   8.902  48.312  1.00 44.95    -0.572 OA
HETATM   71  O5S SGN C   4       4.159   9.291  46.217  1.00 42.87    -0.572 OA
HETATM   72  O6S SGN C   4       6.552   9.359  46.276  1.00 40.27    -0.572 OA
ENDBRANCH  68  69
ENDBRANCH  67  68
ENDBRANCH   5  67
BRANCH   4  73
HETATM   73  O4  SGN C   4       4.527  11.816  51.458  1.00 25.89    -0.348 OA
BRANCH  73  74
HETATM   74  C1  BDP C   5       3.212  11.811  52.054  1.00 28.36     0.292 C 
HETATM   75  C2  BDP C   5       2.914  10.462  52.635  1.00 31.13     0.204 C 
HETATM   76  C3  BDP C   5       1.522  10.407  53.160  1.00 33.85     0.183 C 
HETATM   77  C4  BDP C   5       1.237  11.544  54.083  1.00 31.81     0.195 C 
HETATM   78  C5  BDP C   5       1.738  12.839  53.483  1.00 27.14     0.257 C 
HETATM   79  O5  BDP C   5       3.069  12.741  53.071  1.00 24.75    -0.340 OA
BRANCH  75  80
HETATM   80  O2  BDP C   5       3.057   9.470  51.676  1.00 34.37    -0.388 OA
ATOM     81  H2  BDP C   5       2.710   8.644  51.990  1.00  0.00     0.210 HD
ENDBRANCH  75  80
BRANCH  76  82
HETATM   82  O3  BDP C   5       1.370   9.206  53.826  1.00 34.34    -0.390 OA
ATOM     83  H3  BDP C   5       1.363   9.391  54.759  1.00  0.00     0.210 HD
ENDBRANCH  76  82
BRANCH  77  84
HETATM   84  O4  BDP C   5      -0.141  11.664  54.265  1.00 33.34    -0.348 OA
BRANCH  84  85
HETATM   85  C1  NGY C   6      -0.667  10.854  55.342  1.00 35.33     0.286 C 
HETATM   86  C2  NGY C   6      -2.147  10.749  55.178  1.00 39.33     0.170 C 
HETATM   87  C3  NGY C   6      -2.740  12.098  55.386  1.00 39.13     0.177 C 
HETATM   88  C4  NGY C   6      -2.389  12.561  56.757  1.00 37.06     0.180 C 
HETATM   89  C5  NGY C   6      -0.899  12.608  56.847  1.00 32.98     0.181 C 
HETATM   90  O5  NGY C   6      -0.395  11.347  56.604  1.00 32.46    -0.349 OA
BRANCH  86  91
HETATM   91  N2  NGY C   6      -2.448  10.310  53.849  1.00 39.90    -0.349 N 
HETATM   92  C7  NGY C   6      -2.141   8.975  53.443  1.00 44.73     0.214 C 
HETATM   93  O7  NGY C   6      -1.617   8.198  54.228  1.00 46.19    -0.274 OA
HETATM   94  C8  NGY C   6      -2.466   8.542  52.052  1.00 43.79     0.117 C 
ATOM     95  H2  NGY C   6      -2.884  10.953  53.189  1.00  0.00     0.163 HD
ENDBRANCH  86  91
BRANCH  87  96
HETATM   96  O3  NGY C   6      -4.109  12.047  55.235  1.00 44.02    -0.391 OA
ATOM     97  H3  NGY C   6      -4.343  12.138  54.319  1.00  0.00     0.210 HD
ENDBRANCH  87  96
BRANCH  88  98
HETATM   98  O4  NGY C   6      -2.914  13.816  56.965  1.00 37.39    -0.390 OA
ATOM     99  H4  NGY C   6      -2.240  14.469  56.816  1.00  0.00     0.210 HD
ENDBRANCH  88  98
BRANCH  89 100
HETATM  100  C6  NGY C   6      -0.447  13.111  58.183  1.00 31.91     0.227 C 
BRANCH 100 101
HETATM  101  O6  NGY C   6      -0.512  14.489  58.263  1.00 36.15    -0.254 OA
BRANCH 101 102
HETATM  102  S   NGY C   6       0.444  15.225  59.121  1.00 34.85     0.251 S 
HETATM  103  O7A NGY C   6       0.125  16.629  59.139  1.00 33.41    -0.572 OA
HETATM  104  O8  NGY C   6       1.760  15.001  58.523  1.00 30.21    -0.572 OA
HETATM  105  O9  NGY C   6       0.377  14.697  60.463  1.00 38.01    -0.572 OA
ENDBRANCH 101 102
ENDBRANCH 100 101
ENDBRANCH  89 100
ENDBRANCH  84  85
ENDBRANCH  77  84
BRANCH  78 106
HETATM  106  C6  BDP C   5       1.571  14.011  54.403  1.00 29.31     0.206 C 
HETATM  107  O6A BDP C   5       1.133  15.099  53.951  1.00 32.10    -0.646 OA
HETATM  108  O6B BDP C   5       1.884  13.921  55.618  1.00 26.46    -0.646 OA
ENDBRANCH  78 106
ENDBRANCH  73  74
ENDBRANCH   4  73
TORSDOF 38
ENDMDL
MODEL 7
REMARK VINA RESULT:      -7.0      4.012      7.136
REMARK WARNING: 32 MAX_TORS EXCEEDED!!!
REMARK  38 active torsions:
REMARK  status: ('A' for Active; 'I' for Inactive)
REMARK    1  A    between atoms: C2_2  and  O2_3 
REMARK    2  A    between atoms: C3_5  and  O3_6 
REMARK    3  A    between atoms: C4_8  and  O4_9 
REMARK    4  A    between atoms: O4_9  and  C1_15 
REMARK    5  A    between atoms: C5_10  and  C6_12 
REMARK    6  A    between atoms: S1_17  and  N2_19 
REMARK    7  A    between atoms: C2_18  and  N2_19 
REMARK    8  A    between atoms: S2_22  and  O6_34 
REMARK    9  A    between atoms: C3_23  and  O3_24 
REMARK   10  A    between atoms: C4_27  and  O4_28 
REMARK   11  A    between atoms: O4_28  and  C1_36 
REMARK   12  A    between atoms: C5_30  and  C6_33 
REMARK   13  A    between atoms: C6_33  and  O6_34 
REMARK   14  A    between atoms: C2_38  and  O2_39 
REMARK   15  A    between atoms: O2_39  and  S_52 
REMARK   16  A    between atoms: C3_41  and  O3_42 
REMARK   17  A    between atoms: C4_45  and  O4_46 
REMARK   18  A    between atoms: O4_46  and  C1_53 
REMARK   19  A    between atoms: C5_47  and  C6_49 
REMARK   20  A    between atoms: S1_55  and  N2_57 
REMARK   21  A    between atoms: C2_56  and  N2_57 
REMARK   22  A    between atoms: S2_60  and  O6_72 
REMARK   23  A    between atoms: C3_61  and  O3_62 
REMARK   24  A    between atoms: C4_65  and  O4_66 
REMARK   25  A    between atoms: O4_66  and  C1_74 
REMARK   26  A    between atoms: C5_68  and  C6_71 
REMARK   27  A    between atoms: C6_71  and  O6_72 
REMARK   28  A    between atoms: C2_75  and  O2_76 
REMARK   29  A    between atoms: C3_78  and  O3_79 
REMARK   30  A    between atoms: C4_81  and  O4_82 
REMARK   31  A    between atoms: O4_82  and  C1_88 
REMARK   32  A    between atoms: C5_83  and  C6_85 
REMARK   33  A    between atoms: C2_89  and  N2_90 
REMARK       I    between atoms: N2_90  and  C7_102 
REMARK   34  A    between atoms: C3_92  and  O3_93 
REMARK   35  A    between atoms: C4_95  and  O4_96 
REMARK   36  A    between atoms: C5_98  and  C6_100 
REMARK   37  A    between atoms: C6_100  and  O6_101 
REMARK   38  A    between atoms: O6_101  and  S_108 
ROOT
HETATM    1  C1  SGN C   4       4.592  12.564  48.483  1.00 25.95     0.287 C 
HETATM    2  C2  SGN C   4       5.154  11.562  47.469  1.00 24.33     0.182 C 
HETATM    3  C3  SGN C   4       6.573  11.131  47.829  1.00 24.72     0.178 C 
HETATM    4  C4  SGN C   4       7.466  12.348  48.014  1.00 24.11     0.186 C 
HETATM    5  C5  SGN C   4       6.771  13.310  48.979  1.00 25.01     0.181 C 
HETATM    6  O5  SGN C   4       5.477  13.665  48.526  1.00 24.61    -0.349 OA
ENDROOT
BRANCH   1   7
HETATM    7  O4  IDS C   3       4.385  11.960  49.786  1.00 24.52    -0.348 OA
BRANCH   7   8
HETATM    8  C4  IDS C   3       3.106  12.238  50.275  1.00 32.57     0.195 C 
HETATM    9  C3  IDS C   3       2.213  11.029  50.263  1.00 36.22     0.185 C 
HETATM   10  C2  IDS C   3       2.245  10.194  51.525  1.00 37.49     0.231 C 
HETATM   11  C1  IDS C   3       2.367  11.029  52.762  1.00 32.35     0.294 C 
HETATM   12  O5  IDS C   3       3.424  11.897  52.617  1.00 29.95    -0.340 OA
HETATM   13  C5  IDS C   3       3.157  12.841  51.653  1.00 31.73     0.257 C 
BRANCH   9  14
HETATM   14  O3  IDS C   3       0.911  11.451  50.079  1.00 35.64    -0.390 OA
ATOM     15  H3  IDS C   3       0.408  11.163  50.831  1.00  0.00     0.210 HD
ENDBRANCH   9  14
BRANCH  10  16
HETATM   16  O2  IDS C   3       3.264   9.258  51.472  1.00 41.30    -0.244 OA
BRANCH  16  17
HETATM   17  S   IDS C   3       3.016   7.911  52.020  1.00 46.67     0.252 S 
HETATM   18  O1S IDS C   3       4.235   7.143  52.008  1.00 45.84    -0.572 OA
HETATM   19  O2S IDS C   3       2.530   8.110  53.391  1.00 43.53    -0.572 OA
HETATM   20  O3S IDS C   3       2.016   7.220  51.243  1.00 50.85    -0.572 OA
ENDBRANCH  16  17
ENDBRANCH  10  16
BRANCH  11  21
HETATM   21  O4  SGN C   2       1.094  11.650  53.067  1.00 35.63    -0.348 OA
BRANCH  21  22
HETATM   22  C4  SGN C   2       0.764  11.612  54.450  1.00 34.14     0.186 C 
HETATM   23  C3  SGN C   2       0.716  13.052  54.947  1.00 36.01     0.178 C 
HETATM   24  C2  SGN C   2       0.084  13.203  56.333  1.00 38.29     0.182 C 
HETATM   25  C1  SGN C   2      -1.215  12.406  56.448  1.00 40.25     0.287 C 
HETATM   26  O5  SGN C   2      -0.984  11.069  56.050  1.00 40.44    -0.349 OA
HETATM   27  C5  SGN C   2      -0.598  10.958  54.683  1.00 39.12     0.181 C 
BRANCH  23  28
HETATM   28  O3  SGN C   2       2.014  13.595  54.966  1.00 37.94    -0.391 OA
ATOM     29  H3  SGN C   2       2.516  13.185  55.660  1.00  0.00     0.210 HD
ENDBRANCH  23  28
BRANCH  24  30
HETATM   30  N2  SGN C   2      -0.164  14.619  56.535  1.00 38.07    -0.289 N 
ATOM     31  H2  SGN C   2      -1.023  15.026  56.165  1.00  0.00     0.175 HD
BRANCH  30  32
HETATM   32  S1  SGN C   2       0.863  15.561  57.319  1.00 51.36     0.205 S 
HETATM   33  O1S SGN C   2       1.717  14.702  58.133  1.00 53.59    -0.578 OA
HETATM   34  O2S SGN C   2       1.649  16.266  56.310  1.00 50.52    -0.578 OA
HETATM   35  O3S SGN C   2       0.040  16.454  58.127  1.00 54.39    -0.578 OA
ENDBRANCH  30  32
ENDBRANCH  24  30
BRANCH  25  36
HETATM   36  O4  BDP C   1      -2.238  13.062  55.663  1.00 42.04    -0.348 OA
BRANCH  36  37
HETATM   37  C4  BDP C   1      -3.414  12.331  55.602  1.00 48.48     0.195 C 
HETATM   38  C3  BDP C   1      -4.177  12.525  56.870  1.00 51.01     0.181 C 
HETATM   39  C2  BDP C   1      -5.586  12.055  56.751  1.00 53.01     0.173 C 
HETATM   40  C1  BDP C   1      -6.238  12.594  55.525  1.00 54.14     0.203 C 
HETATM   41  O5  BDP C   1      -5.479  12.237  54.431  1.00 54.15    -0.370 OA
HETATM   42  C5  BDP C   1      -4.218  12.819  54.425  1.00 51.87     0.253 C 
BRANCH  38  43
HETATM   43  O3  BDP C   1      -3.575  11.808  57.886  1.00 52.92    -0.390 OA
ATOM     44  H3  BDP C   1      -4.185  11.137  58.171  1.00  0.00     0.210 HD
ENDBRANCH  38  43
BRANCH  39  45
HETATM   45  O2  BDP C   1      -6.303  12.484  57.850  1.00 53.19    -0.391 OA
ATOM     46  H2  BDP C   1      -6.990  13.067  57.551  1.00  0.00     0.210 HD
ENDBRANCH  39  45
BRANCH  42  47
HETATM   47  C6  BDP C   1      -3.553  12.519  53.115  1.00 51.57     0.205 C 
HETATM   48  O6A BDP C   1      -3.093  13.459  52.417  1.00 52.65    -0.646 OA
HETATM   49  O6B BDP C   1      -3.463  11.329  52.711  1.00 51.09    -0.646 OA
ENDBRANCH  42  47
ENDBRANCH  36  37
ENDBRANCH  25  36
BRANCH  27  50
HETATM   50  C6  SGN C   2      -0.618   9.493  54.261  1.00 42.92     0.227 C 
BRANCH  50  51
HETATM   51  O6  SGN C   2      -1.373   8.730  55.176  1.00 46.75    -0.254 OA
BRANCH  51  52
HETATM   52  S2  SGN C   2      -2.738   8.102  54.739  1.00 56.56     0.251 S 
HETATM   53  O4S SGN C   2      -2.865   6.825  55.438  1.00 58.52    -0.572 OA
HETATM   54  O5S SGN C   2      -3.803   9.028  55.106  1.00 53.95    -0.572 OA
HETATM   55  O6S SGN C   2      -2.686   7.931  53.293  1.00 54.13    -0.572 OA
ENDBRANCH  51  52
ENDBRANCH  50  51
ENDBRANCH  27  50
ENDBRANCH  21  22
ENDBRANCH  11  21
BRANCH  13  56
HETATM   56  C6  IDS C   3       4.234  13.878  51.708  1.00 33.29     0.206 C 
HETATM   57  O6A IDS C   3       5.313  13.642  52.310  1.00 34.35    -0.646 OA
HETATM   58  O6B IDS C   3       4.054  14.997  51.157  1.00 34.80    -0.646 OA
ENDBRANCH  13  56
ENDBRANCH   7   8
ENDBRANCH   1   7
BRANCH   2  59
HETATM   59  N2  SGN C   4       4.303  10.392  47.350  1.00 24.47    -0.289 N 
ATOM     60  H2  SGN C   4       4.008   9.864  48.171  1.00  0.00     0.175 HD
BRANCH  59  61
HETATM   61  S1  SGN C   4       3.849   9.966  45.879  1.00 23.01     0.205 S 
HETATM   62  O1S SGN C   4       4.672   8.848  45.454  1.00 23.82    -0.578 OA
HETATM   63  O2S SGN C   4       2.445   9.571  45.942  1.00 21.15    -0.578 OA
HETATM   64  O3S SGN C   4       4.049  11.156  45.056  1.00 24.34    -0.578 OA
ENDBRANCH  59  61
ENDBRANCH   2  59
BRANCH   3  65
HETATM   65  O3  SGN C   4       7.089  10.300  46.807  1.00 24.01    -0.391 OA
ATOM     66  H3  SGN C   4       7.321  10.830  46.054  1.00  0.00     0.210 HD
ENDBRANCH   3  65
BRANCH   5  67
HETATM   67  C6  SGN C   4       7.564  14.595  49.180  1.00 29.42     0.227 C 
BRANCH  67  68
HETATM   68  O6  SGN C   4       8.270  14.554  50.400  1.00 33.38    -0.254 OA
BRANCH  68  69
HETATM   69  S2  SGN C   4       8.732  15.915  51.032  1.00 42.75     0.251 S 
HETATM   70  O4S SGN C   4       8.280  16.985  50.153  1.00 44.95    -0.572 OA
HETATM   71  O5S SGN C   4       8.124  15.966  52.353  1.00 42.87    -0.572 OA
HETATM   72  O6S SGN C   4      10.185  15.866  51.138  1.00 40.27    -0.572 OA
ENDBRANCH  68  69
ENDBRANCH  67  68
ENDBRANCH   5  67
BRANCH   4  73
HETATM   73  O4  SGN C   4       8.693  11.900  48.571  1.00 25.89    -0.348 OA
BRANCH  73  74
HETATM   74  C1  BDP C   5       9.834  12.096  47.709  1.00 28.36     0.292 C 
HETATM   75  C2  BDP C   5      11.057  12.377  48.529  1.00 31.13     0.204 C 
HETATM   76  C3  BDP C   5      12.221  12.688  47.654  1.00 33.85     0.183 C 
HETATM   77  C4  BDP C   5      12.417  11.643  46.608  1.00 31.81     0.195 C 
HETATM   78  C5  BDP C   5      11.093  11.299  45.962  1.00 27.14     0.257 C 
HETATM   79  O5  BDP C   5      10.114  10.998  46.912  1.00 24.75    -0.340 OA
BRANCH  75  80
HETATM   80  O2  BDP C   5      10.846  13.458  49.373  1.00 34.37    -0.388 OA
ATOM     81  H2  BDP C   5      10.125  13.285  49.967  1.00  0.00     0.210 HD
ENDBRANCH  75  80
BRANCH  76  82
HETATM   82  O3  BDP C   5      13.342  12.769  48.459  1.00 34.34    -0.390 OA
ATOM     83  H3  BDP C   5      13.382  13.650  48.812  1.00  0.00     0.210 HD
ENDBRANCH  76  82
BRANCH  77  84
HETATM   84  O4  BDP C   5      13.263  12.131  45.612  1.00 33.34    -0.348 OA
BRANCH  84  85
HETATM   85  C1  NGY C   6      14.299  13.015  46.099  1.00 35.33     0.286 C 
HETATM   86  C2  NGY C   6      14.806  13.827  44.953  1.00 39.33     0.170 C 
HETATM   87  C3  NGY C   6      15.495  12.916  43.999  1.00 39.13     0.177 C 
HETATM   88  C4  NGY C   6      16.616  12.246  44.712  1.00 37.06     0.180 C 
HETATM   89  C5  NGY C   6      16.029  11.485  45.856  1.00 32.98     0.181 C 
HETATM   90  O5  NGY C   6      15.367  12.364  46.687  1.00 32.46    -0.349 OA
BRANCH  86  91
HETATM   91  N2  NGY C   6      13.703  14.450  44.287  1.00 39.90    -0.349 N 
HETATM   92  C7  NGY C   6      13.639  15.872  44.170  1.00 44.73     0.214 C 
HETATM   93  O7  NGY C   6      14.527  16.569  44.642  1.00 46.19    -0.274 OA
HETATM   94  C8  NGY C   6      12.478  16.497  43.470  1.00 43.79     0.117 C 
ATOM     95  H2  NGY C   6      12.959  13.875  43.892  1.00  0.00     0.163 HD
ENDBRANCH  86  91
BRANCH  87  96
HETATM   96  O3  NGY C   6      15.972  13.627  42.918  1.00 44.02    -0.391 OA
ATOM     97  H3  NGY C   6      15.456  14.413  42.786  1.00  0.00     0.210 HD
ENDBRANCH  87  96
BRANCH  88  98
HETATM   98  O4  NGY C   6      17.256  11.384  43.851  1.00 37.39    -0.390 OA
ATOM     99  H4  NGY C   6      16.633  10.749  43.518  1.00  0.00     0.210 HD
ENDBRANCH  88  98
BRANCH  89 100
HETATM  100  C6  NGY C   6      17.081  10.733  46.611  1.00 31.91     0.227 C 
BRANCH 100 101
HETATM  101  O6  NGY C   6      16.533   9.769  47.436  1.00 36.15    -0.254 OA
BRANCH 101 102
HETATM  102  S   NGY C   6      16.408  10.024  48.888  1.00 34.85     0.251 S 
HETATM  103  O7A NGY C   6      17.376  11.002  49.312  1.00 33.41    -0.572 OA
HETATM  104  O8  NGY C   6      16.656   8.737  49.535  1.00 30.21    -0.572 OA
HETATM  105  O9  NGY C   6      15.078  10.508  49.170  1.00 38.01    -0.572 OA
ENDBRANCH 101 102
ENDBRANCH 100 101
ENDBRANCH  89 100
ENDBRANCH  84  85
ENDBRANCH  77  84
BRANCH  78 106
HETATM  106  C6  BDP C   5      11.201  10.183  44.967  1.00 29.31     0.206 C 
HETATM  107  O6A BDP C   5      11.916   9.183  45.228  1.00 32.10    -0.646 OA
HETATM  108  O6B BDP C   5      10.598  10.247  43.865  1.00 26.46    -0.646 OA
ENDBRANCH  78 106
ENDBRANCH  73  74
ENDBRANCH   4  73
TORSDOF 38
ENDMDL
MODEL 8
REMARK VINA RESULT:      -7.0      4.668      8.710
REMARK WARNING: 32 MAX_TORS EXCEEDED!!!
REMARK  38 active torsions:
REMARK  status: ('A' for Active; 'I' for Inactive)
REMARK    1  A    between atoms: C2_2  and  O2_3 
REMARK    2  A    between atoms: C3_5  and  O3_6 
REMARK    3  A    between atoms: C4_8  and  O4_9 
REMARK    4  A    between atoms: O4_9  and  C1_15 
REMARK    5  A    between atoms: C5_10  and  C6_12 
REMARK    6  A    between atoms: S1_17  and  N2_19 
REMARK    7  A    between atoms: C2_18  and  N2_19 
REMARK    8  A    between atoms: S2_22  and  O6_34 
REMARK    9  A    between atoms: C3_23  and  O3_24 
REMARK   10  A    between atoms: C4_27  and  O4_28 
REMARK   11  A    between atoms: O4_28  and  C1_36 
REMARK   12  A    between atoms: C5_30  and  C6_33 
REMARK   13  A    between atoms: C6_33  and  O6_34 
REMARK   14  A    between atoms: C2_38  and  O2_39 
REMARK   15  A    between atoms: O2_39  and  S_52 
REMARK   16  A    between atoms: C3_41  and  O3_42 
REMARK   17  A    between atoms: C4_45  and  O4_46 
REMARK   18  A    between atoms: O4_46  and  C1_53 
REMARK   19  A    between atoms: C5_47  and  C6_49 
REMARK   20  A    between atoms: S1_55  and  N2_57 
REMARK   21  A    between atoms: C2_56  and  N2_57 
REMARK   22  A    between atoms: S2_60  and  O6_72 
REMARK   23  A    between atoms: C3_61  and  O3_62 
REMARK   24  A    between atoms: C4_65  and  O4_66 
REMARK   25  A    between atoms: O4_66  and  C1_74 
REMARK   26  A    between atoms: C5_68  and  C6_71 
REMARK   27  A    between atoms: C6_71  and  O6_72 
REMARK   28  A    between atoms: C2_75  and  O2_76 
REMARK   29  A    between atoms: C3_78  and  O3_79 
REMARK   30  A    between atoms: C4_81  and  O4_82 
REMARK   31  A    between atoms: O4_82  and  C1_88 
REMARK   32  A    between atoms: C5_83  and  C6_85 
REMARK   33  A    between atoms: C2_89  and  N2_90 
REMARK       I    between atoms: N2_90  and  C7_102 
REMARK   34  A    between atoms: C3_92  and  O3_93 
REMARK   35  A    between atoms: C4_95  and  O4_96 
REMARK   36  A    between atoms: C5_98  and  C6_100 
REMARK   37  A    between atoms: C6_100  and  O6_101 
REMARK   38  A    between atoms: O6_101  and  S_108 
ROOT
HETATM    1  C1  SGN C   4       7.527  11.757  48.189  1.00 25.95     0.287 C 
HETATM    2  C2  SGN C   4       7.783  12.726  49.348  1.00 24.33     0.182 C 
HETATM    3  C3  SGN C   4       8.760  13.830  48.954  1.00 24.72     0.178 C 
HETATM    4  C4  SGN C   4      10.040  13.229  48.393  1.00 24.11     0.186 C 
HETATM    5  C5  SGN C   4       9.660  12.223  47.306  1.00 25.01     0.181 C 
HETATM    6  O5  SGN C   4       8.778  11.230  47.794  1.00 24.61    -0.349 OA
ENDROOT
BRANCH   1   7
HETATM    7  O4  IDS C   3       6.815  12.391  47.096  1.00 24.52    -0.348 OA
BRANCH   7   8
HETATM    8  C4  IDS C   3       6.370  11.448  46.167  1.00 32.57     0.195 C 
HETATM    9  C3  IDS C   3       5.900  10.179  46.819  1.00 36.22     0.185 C 
HETATM   10  C2  IDS C   3       4.431  10.149  47.183  1.00 37.49     0.231 C 
HETATM   11  C1  IDS C   3       3.574  10.836  46.164  1.00 32.35     0.294 C 
HETATM   12  O5  IDS C   3       4.083  12.089  45.919  1.00 29.95    -0.340 OA
HETATM   13  C5  IDS C   3       5.296  12.011  45.275  1.00 31.73     0.257 C 
BRANCH   9  14
HETATM   14  O3  IDS C   3       6.133   9.131  45.950  1.00 35.64    -0.390 OA
ATOM     15  H3  IDS C   3       6.272   9.501  45.087  1.00  0.00     0.210 HD
ENDBRANCH   9  14
BRANCH  10  16
HETATM   16  O2  IDS C   3       4.221  10.696  48.437  1.00 41.30    -0.244 OA
BRANCH  16  17
HETATM   17  S   IDS C   3       3.931   9.790  49.564  1.00 46.67     0.252 S 
HETATM   18  O1S IDS C   3       3.690  10.555  50.761  1.00 45.84    -0.572 OA
HETATM   19  O2S IDS C   3       2.740   9.023  49.178  1.00 43.53    -0.572 OA
HETATM   20  O3S IDS C   3       5.036   8.891  49.794  1.00 50.85    -0.572 OA
ENDBRANCH  16  17
ENDBRANCH  10  16
BRANCH  11  21
HETATM   21  O4  SGN C   2       3.421   9.991  44.996  1.00 35.63    -0.348 OA
BRANCH  21  22
HETATM   22  C4  SGN C   2       2.390  10.423  44.118  1.00 34.14     0.186 C 
HETATM   23  C3  SGN C   2       2.838  10.106  42.696  1.00 36.01     0.178 C 
HETATM   24  C2  SGN C   2       1.721  10.232  41.657  1.00 38.29     0.182 C 
HETATM   25  C1  SGN C   2       0.436   9.550  42.127  1.00 40.25     0.287 C 
HETATM   26  O5  SGN C   2       0.097  10.023  43.415  1.00 40.44    -0.349 OA
HETATM   27  C5  SGN C   2       1.074   9.698  44.399  1.00 39.12     0.181 C 
BRANCH  23  28
HETATM   28  O3  SGN C   2       3.908  10.945  42.334  1.00 37.94    -0.391 OA
ATOM     29  H3  SGN C   2       3.589  11.834  42.231  1.00  0.00     0.210 HD
ENDBRANCH  23  28
BRANCH  24  30
HETATM   30  N2  SGN C   2       2.208   9.620  40.434  1.00 38.07    -0.289 N 
ATOM     31  H2  SGN C   2       2.724   8.742  40.493  1.00  0.00     0.175 HD
BRANCH  30  32
HETATM   32  S1  SGN C   2       1.962  10.275  38.996  1.00 51.36     0.205 S 
HETATM   33  O1S SGN C   2       3.246  10.321  38.306  1.00 53.59    -0.578 OA
HETATM   34  O2S SGN C   2       1.022   9.411  38.289  1.00 50.52    -0.578 OA
HETATM   35  O3S SGN C   2       1.424  11.607  39.258  1.00 54.39    -0.578 OA
ENDBRANCH  30  32
ENDBRANCH  24  30
BRANCH  25  36
HETATM   36  O4  BDP C   1       0.624   8.117  42.082  1.00 42.04    -0.348 OA
BRANCH  36  37
HETATM   37  C4  BDP C   1      -0.556   7.418  42.284  1.00 48.48     0.195 C 
HETATM   38  C3  BDP C   1      -1.258   7.254  40.977  1.00 51.01     0.181 C 
HETATM   39  C2  BDP C   1      -2.345   6.238  41.052  1.00 53.01     0.173 C 
HETATM   40  C1  BDP C   1      -1.869   4.976  41.682  1.00 54.14     0.203 C 
HETATM   41  O5  BDP C   1      -1.353   5.273  42.926  1.00 54.15    -0.370 OA
HETATM   42  C5  BDP C   1      -0.218   6.071  42.872  1.00 51.87     0.253 C 
BRANCH  38  43
HETATM   43  O3  BDP C   1      -1.826   8.457  40.605  1.00 52.92    -0.390 OA
ATOM     44  H3  BDP C   1      -1.127   9.034  40.320  1.00  0.00     0.210 HD
ENDBRANCH  38  43
BRANCH  39  45
HETATM   45  O2  BDP C   1      -2.785   5.949  39.775  1.00 53.19    -0.391 OA
ATOM     46  H2  BDP C   1      -3.731   5.867  39.795  1.00  0.00     0.210 HD
ENDBRANCH  39  45
BRANCH  42  47
HETATM   47  C6  BDP C   1       0.364   6.179  44.249  1.00 51.57     0.205 C 
HETATM   48  O6A BDP C   1       1.583   6.455  44.394  1.00 52.65    -0.646 OA
HETATM   49  O6B BDP C   1      -0.364   5.985  45.259  1.00 51.09    -0.646 OA
ENDBRANCH  42  47
ENDBRANCH  36  37
ENDBRANCH  25  36
BRANCH  27  50
HETATM   50  C6  SGN C   2       0.527  10.007  45.789  1.00 42.92     0.227 C 
BRANCH  50  51
HETATM   51  O6  SGN C   2       0.136  11.360  45.871  1.00 46.75    -0.254 OA
BRANCH  51  52
HETATM   52  S2  SGN C   2      -1.275  11.739  46.430  1.00 56.56     0.251 S 
HETATM   53  O4S SGN C   2      -2.234  11.534  45.346  1.00 58.52    -0.572 OA
HETATM   54  O5S SGN C   2      -1.558  10.879  47.573  1.00 53.95    -0.572 OA
HETATM   55  O6S SGN C   2      -1.210  13.134  46.845  1.00 54.13    -0.572 OA
ENDBRANCH  51  52
ENDBRANCH  50  51
ENDBRANCH  27  50
ENDBRANCH  21  22
ENDBRANCH  11  21
BRANCH  13  56
HETATM   56  C6  IDS C   3       5.678  13.389  44.837  1.00 33.29     0.206 C 
HETATM   57  O6A IDS C   3       5.030  14.389  45.242  1.00 34.35    -0.646 OA
HETATM   58  O6B IDS C   3       6.648  13.549  44.048  1.00 34.80    -0.646 OA
ENDBRANCH  13  56
ENDBRANCH   7   8
ENDBRANCH   1   7
BRANCH   2  59
HETATM   59  N2  SGN C   4       6.548  13.316  49.830  1.00 24.47    -0.289 N 
ATOM     60  H2  SGN C   4       5.794  13.570  49.190  1.00  0.00     0.175 HD
BRANCH  59  61
HETATM   61  S1  SGN C   4       6.416  13.552  51.405  1.00 23.01     0.205 S 
HETATM   62  O1S SGN C   4       5.082  13.152  51.814  1.00 23.82    -0.578 OA
HETATM   63  O2S SGN C   4       7.421  12.726  52.065  1.00 21.15    -0.578 OA
HETATM   64  O3S SGN C   4       6.660  14.978  51.601  1.00 24.34    -0.578 OA
ENDBRANCH  59  61
ENDBRANCH   2  59
BRANCH   3  65
HETATM   65  O3  SGN C   4       9.053  14.628  50.085  1.00 24.01    -0.391 OA
ATOM     66  H3  SGN C   4       9.932  14.979  50.007  1.00  0.00     0.210 HD
ENDBRANCH   3  65
BRANCH   5  67
HETATM   67  C6  SGN C   4      10.879  11.520  46.723  1.00 29.42     0.227 C 
BRANCH  67  68
HETATM   68  O6  SGN C   4      10.754  11.392  45.324  1.00 33.38    -0.254 OA
BRANCH  68  69
HETATM   69  S2  SGN C   4      10.489   9.961  44.734  1.00 42.75     0.251 S 
HETATM   70  O4S SGN C   4      10.853   9.991  43.324  1.00 44.95    -0.572 OA
HETATM   71  O5S SGN C   4      11.313   9.051  45.517  1.00 42.87    -0.572 OA
HETATM   72  O6S SGN C   4       9.074   9.671  44.932  1.00 40.27    -0.572 OA
ENDBRANCH  68  69
ENDBRANCH  67  68
ENDBRANCH   5  67
BRANCH   4  73
HETATM   73  O4  SGN C   4      10.802  14.289  47.834  1.00 25.89    -0.348 OA
BRANCH  73  74
HETATM   74  C1  BDP C   5      12.214  14.213  48.123  1.00 28.36     0.292 C 
HETATM   75  C2  BDP C   5      12.429  13.922  49.577  1.00 31.13     0.204 C 
HETATM   76  C3  BDP C   5      13.878  13.946  49.914  1.00 33.85     0.183 C 
HETATM   77  C4  BDP C   5      14.671  13.076  48.996  1.00 31.81     0.195 C 
HETATM   78  C5  BDP C   5      14.253  13.316  47.563  1.00 27.14     0.257 C 
HETATM   79  O5  BDP C   5      12.868  13.226  47.402  1.00 24.75    -0.340 OA
BRANCH  75  80
HETATM   80  O2  BDP C   5      11.783  14.862  50.367  1.00 34.37    -0.388 OA
ATOM     81  H2  BDP C   5      12.365  15.582  50.578  1.00  0.00     0.210 HD
ENDBRANCH  75  80
BRANCH  76  82
HETATM   82  O3  BDP C   5      14.015  13.508  51.218  1.00 34.34    -0.390 OA
ATOM     83  H3  BDP C   5      14.168  14.269  51.765  1.00  0.00     0.210 HD
ENDBRANCH  76  82
BRANCH  77  84
HETATM   84  O4  BDP C   5      16.024  13.393  49.104  1.00 33.34    -0.348 OA
BRANCH  84  85
HETATM   85  C1  NGY C   6      16.781  12.479  49.931  1.00 35.33     0.286 C 
HETATM   86  C2  NGY C   6      17.979  13.197  50.458  1.00 39.33     0.170 C 
HETATM   87  C3  NGY C   6      18.878  13.515  49.315  1.00 39.13     0.177 C 
HETATM   88  C4  NGY C   6      19.271  12.241  48.655  1.00 37.06     0.180 C 
HETATM   89  C5  NGY C   6      18.019  11.573  48.186  1.00 32.98     0.181 C 
HETATM   90  O5  NGY C   6      17.202  11.339  49.273  1.00 32.46    -0.349 OA
BRANCH  86  91
HETATM   91  N2  NGY C   6      17.566  14.418  51.079  1.00 39.90    -0.349 N 
HETATM   92  C7  NGY C   6      17.826  14.649  52.464  1.00 44.73     0.214 C 
HETATM   93  O7  NGY C   6      18.403  13.801  53.131  1.00 46.19    -0.274 OA
HETATM   94  C8  NGY C   6      17.385  15.931  53.087  1.00 43.79     0.117 C 
ATOM     95  H2  NGY C   6      17.084  15.129  50.528  1.00  0.00     0.163 HD
ENDBRANCH  86  91
BRANCH  87  96
HETATM   96  O3  NGY C   6      19.996  14.188  49.759  1.00 44.02    -0.391 OA
ATOM     97  H3  NGY C   6      19.837  14.563  50.617  1.00  0.00     0.210 HD
ENDBRANCH  87  96
BRANCH  88  98
HETATM   98  O4  NGY C   6      20.089  12.514  47.582  1.00 37.39    -0.390 OA
ATOM     99  H4  NGY C   6      20.926  12.834  47.897  1.00  0.00     0.210 HD
ENDBRANCH  88  98
BRANCH  89 100
HETATM  100  C6  NGY C   6      18.316  10.298  47.461  1.00 31.91     0.227 C 
BRANCH 100 101
HETATM  101  O6  NGY C   6      17.822  10.311  46.171  1.00 36.15    -0.254 OA
BRANCH 101 102
HETATM  102  S   NGY C   6      18.742  10.135  45.025  1.00 34.85     0.251 S 
HETATM  103  O7A NGY C   6      19.754   9.160  45.338  1.00 33.41    -0.572 OA
HETATM  104  O8  NGY C   6      19.343  11.449  44.799  1.00 30.21    -0.572 OA
HETATM  105  O9  NGY C   6      17.987   9.696  43.876  1.00 38.01    -0.572 OA
ENDBRANCH 101 102
ENDBRANCH 100 101
ENDBRANCH  89 100
ENDBRANCH  84  85
ENDBRANCH  77  84
BRANCH  78 106
HETATM  106  C6  BDP C   5      14.941  12.403  46.593  1.00 29.31     0.206 C 
HETATM  107  O6A BDP C   5      14.712  11.168  46.632  1.00 32.10    -0.646 OA
HETATM  108  O6B BDP C   5      15.759  12.860  45.753  1.00 26.46    -0.646 OA
ENDBRANCH  78 106
ENDBRANCH  73  74
ENDBRANCH   4  73
TORSDOF 38
ENDMDL
MODEL 9
REMARK VINA RESULT:      -6.9      3.806     16.728
REMARK WARNING: 32 MAX_TORS EXCEEDED!!!
REMARK  38 active torsions:
REMARK  status: ('A' for Active; 'I' for Inactive)
REMARK    1  A    between atoms: C2_2  and  O2_3 
REMARK    2  A    between atoms: C3_5  and  O3_6 
REMARK    3  A    between atoms: C4_8  and  O4_9 
REMARK    4  A    between atoms: O4_9  and  C1_15 
REMARK    5  A    between atoms: C5_10  and  C6_12 
REMARK    6  A    between atoms: S1_17  and  N2_19 
REMARK    7  A    between atoms: C2_18  and  N2_19 
REMARK    8  A    between atoms: S2_22  and  O6_34 
REMARK    9  A    between atoms: C3_23  and  O3_24 
REMARK   10  A    between atoms: C4_27  and  O4_28 
REMARK   11  A    between atoms: O4_28  and  C1_36 
REMARK   12  A    between atoms: C5_30  and  C6_33 
REMARK   13  A    between atoms: C6_33  and  O6_34 
REMARK   14  A    between atoms: C2_38  and  O2_39 
REMARK   15  A    between atoms: O2_39  and  S_52 
REMARK   16  A    between atoms: C3_41  and  O3_42 
REMARK   17  A    between atoms: C4_45  and  O4_46 
REMARK   18  A    between atoms: O4_46  and  C1_53 
REMARK   19  A    between atoms: C5_47  and  C6_49 
REMARK   20  A    between atoms: S1_55  and  N2_57 
REMARK   21  A    between atoms: C2_56  and  N2_57 
REMARK   22  A    between atoms: S2_60  and  O6_72 
REMARK   23  A    between atoms: C3_61  and  O3_62 
REMARK   24  A    between atoms: C4_65  and  O4_66 
REMARK   25  A    between atoms: O4_66  and  C1_74 
REMARK   26  A    between atoms: C5_68  and  C6_71 
REMARK   27  A    between atoms: C6_71  and  O6_72 
REMARK   28  A    between atoms: C2_75  and  O2_76 
REMARK   29  A    between atoms: C3_78  and  O3_79 
REMARK   30  A    between atoms: C4_81  and  O4_82 
REMARK   31  A    between atoms: O4_82  and  C1_88 
REMARK   32  A    between atoms: C5_83  and  C6_85 
REMARK   33  A    between atoms: C2_89  and  N2_90 
REMARK       I    between atoms: N2_90  and  C7_102 
REMARK   34  A    between atoms: C3_92  and  O3_93 
REMARK   35  A    between atoms: C4_95  and  O4_96 
REMARK   36  A    between atoms: C5_98  and  C6_100 
REMARK   37  A    between atoms: C6_100  and  O6_101 
REMARK   38  A    between atoms: O6_101  and  S_108 
ROOT
HETATM    1  C1  SGN C   4       5.910  14.548  49.469  1.00 25.95     0.287 C 
HETATM    2  C2  SGN C   4       5.210  15.174  50.680  1.00 24.33     0.182 C 
HETATM    3  C3  SGN C   4       4.816  14.121  51.711  1.00 24.72     0.178 C 
HETATM    4  C4  SGN C   4       3.994  13.022  51.057  1.00 24.11     0.186 C 
HETATM    5  C5  SGN C   4       4.748  12.530  49.821  1.00 25.01     0.181 C 
HETATM    6  O5  SGN C   4       5.031  13.586  48.922  1.00 24.61    -0.349 OA
ENDROOT
BRANCH   1   7
HETATM    7  O4  IDS C   3       7.204  13.991  49.818  1.00 24.52    -0.348 OA
BRANCH   7   8
HETATM    8  C4  IDS C   3       8.025  13.875  48.693  1.00 32.57     0.195 C 
HETATM    9  C3  IDS C   3       8.869  15.099  48.472  1.00 36.22     0.185 C 
HETATM   10  C2  IDS C   3      10.219  15.080  49.154  1.00 37.49     0.231 C 
HETATM   11  C1  IDS C   3      10.847  13.719  49.146  1.00 32.35     0.294 C 
HETATM   12  O5  IDS C   3       9.942  12.804  49.630  1.00 29.95    -0.340 OA
HETATM   13  C5  IDS C   3       8.888  12.645  48.760  1.00 31.73     0.257 C 
BRANCH   9  14
HETATM   14  O3  IDS C   3       9.091  15.235  47.115  1.00 35.64    -0.390 OA
ATOM     15  H3  IDS C   3       9.982  14.956  46.943  1.00  0.00     0.210 HD
ENDBRANCH   9  14
BRANCH  10  16
HETATM   16  O2  IDS C   3      10.126  15.560  50.449  1.00 41.30    -0.244 OA
BRANCH  16  17
HETATM   17  S   IDS C   3      11.033  16.645  50.868  1.00 46.67     0.252 S 
HETATM   18  O1S IDS C   3      10.409  17.440  51.895  1.00 45.84    -0.572 OA
HETATM   19  O2S IDS C   3      12.249  15.992  51.370  1.00 43.53    -0.572 OA
HETATM   20  O3S IDS C   3      11.364  17.495  49.750  1.00 50.85    -0.572 OA
ENDBRANCH  16  17
ENDBRANCH  10  16
BRANCH  11  21
HETATM   21  O4  SGN C   2      11.377  13.428  47.829  1.00 35.63    -0.348 OA
BRANCH  21  22
HETATM   22  C4  SGN C   2      11.918  12.117  47.717  1.00 34.14     0.186 C 
HETATM   23  C3  SGN C   2      11.523  11.576  46.347  1.00 36.01     0.178 C 
HETATM   24  C2  SGN C   2      12.274  10.303  45.949  1.00 38.29     0.182 C 
HETATM   25  C1  SGN C   2      13.774  10.427  46.218  1.00 40.25     0.287 C 
HETATM   26  O5  SGN C   2      13.979  10.837  47.556  1.00 40.44    -0.349 OA
HETATM   27  C5  SGN C   2      13.442  12.129  47.827  1.00 39.12     0.181 C 
BRANCH  23  28
HETATM   28  O3  SGN C   2      10.138  11.331  46.312  1.00 37.94    -0.391 OA
ATOM     29  H3  SGN C   2       9.939  10.573  46.850  1.00  0.00     0.210 HD
ENDBRANCH  23  28
BRANCH  24  30
HETATM   30  N2  SGN C   2      12.024  10.086  44.536  1.00 38.07    -0.289 N 
ATOM     31  H2  SGN C   2      12.700  10.436  43.856  1.00  0.00     0.175 HD
BRANCH  30  32
HETATM   32  S1  SGN C   2      10.724   9.318  44.008  1.00 51.36     0.205 S 
HETATM   33  O1S SGN C   2       9.658  10.303  43.860  1.00 53.59    -0.578 OA
HETATM   34  O2S SGN C   2      11.071   8.730  42.718  1.00 50.52    -0.578 OA
HETATM   35  O3S SGN C   2      10.418   8.318  45.026  1.00 54.39    -0.578 OA
ENDBRANCH  30  32
ENDBRANCH  24  30
BRANCH  25  36
HETATM   36  O4  BDP C   1      14.348  11.337  45.253  1.00 42.04    -0.348 OA
BRANCH  36  37
HETATM   37  C4  BDP C   1      15.714  11.502  45.422  1.00 48.48     0.195 C 
HETATM   38  C3  BDP C   1      16.410  10.236  45.044  1.00 51.01     0.181 C 
HETATM   39  C2  BDP C   1      17.876  10.435  44.875  1.00 53.01     0.173 C 
HETATM   40  C1  BDP C   1      18.171  11.608  44.006  1.00 54.14     0.203 C 
HETATM   41  O5  BDP C   1      17.557  12.719  44.546  1.00 54.15    -0.370 OA
HETATM   42  C5  BDP C   1      16.171  12.636  44.540  1.00 51.87     0.253 C 
BRANCH  38  43
HETATM   43  O3  BDP C   1      16.220   9.292  46.034  1.00 52.92    -0.390 OA
ATOM     44  H3  BDP C   1      16.333   8.433  45.644  1.00  0.00     0.210 HD
ENDBRANCH  38  43
BRANCH  39  45
HETATM   45  O2  BDP C   1      18.423   9.310  44.288  1.00 53.19    -0.391 OA
ATOM     46  H2  BDP C   1      17.786   8.949  43.683  1.00  0.00     0.210 HD
ENDBRANCH  39  45
BRANCH  42  47
HETATM   47  C6  BDP C   1      15.606  13.956  44.970  1.00 51.57     0.205 C 
HETATM   48  O6A BDP C   1      15.075  14.716  44.119  1.00 52.65    -0.646 OA
HETATM   49  O6B BDP C   1      15.670  14.308  46.178  1.00 51.09    -0.646 OA
ENDBRANCH  42  47
ENDBRANCH  36  37
ENDBRANCH  25  36
BRANCH  27  50
HETATM   50  C6  SGN C   2      13.922  12.607  49.194  1.00 42.92     0.227 C 
BRANCH  50  51
HETATM   51  O6  SGN C   2      14.313  11.508  49.987  1.00 46.75    -0.254 OA
BRANCH  51  52
HETATM   52  S2  SGN C   2      15.793  11.382  50.480  1.00 56.56     0.251 S 
HETATM   53  O4S SGN C   2      15.823  11.840  51.867  1.00 58.52    -0.572 OA
HETATM   54  O5S SGN C   2      16.193   9.985  50.363  1.00 53.95    -0.572 OA
HETATM   55  O6S SGN C   2      16.606  12.220  49.610  1.00 54.13    -0.572 OA
ENDBRANCH  51  52
ENDBRANCH  50  51
ENDBRANCH  27  50
ENDBRANCH  21  22
ENDBRANCH  11  21
BRANCH  13  56
HETATM   56  C6  IDS C   3       8.071  11.482  49.228  1.00 33.29     0.206 C 
HETATM   57  O6A IDS C   3       8.092  11.136  50.438  1.00 34.35    -0.646 OA
HETATM   58  O6B IDS C   3       7.367  10.840  48.404  1.00 34.80    -0.646 OA
ENDBRANCH  13  56
ENDBRANCH   7   8
ENDBRANCH   1   7
BRANCH   2  59
HETATM   59  N2  SGN C   4       6.039  16.187  51.308  1.00 24.47    -0.289 N 
ATOM     60  H2  SGN C   4       7.046  16.061  51.412  1.00  0.00     0.175 HD
BRANCH  59  61
HETATM   61  S1  SGN C   4       5.309  17.508  51.831  1.00 23.01     0.205 S 
HETATM   62  O1S SGN C   4       6.068  18.659  51.376  1.00 23.82    -0.578 OA
HETATM   63  O2S SGN C   4       3.963  17.528  51.267  1.00 21.15    -0.578 OA
HETATM   64  O3S SGN C   4       5.293  17.387  53.287  1.00 24.34    -0.578 OA
ENDBRANCH  59  61
ENDBRANCH   2  59
BRANCH   3  65
HETATM   65  O3  SGN C   4       4.074  14.731  52.750  1.00 24.01    -0.391 OA
ATOM     66  H3  SGN C   4       4.295  15.653  52.799  1.00  0.00     0.210 HD
ENDBRANCH   3  65
BRANCH   5  67
HETATM   67  C6  SGN C   4       3.971  11.464  49.059  1.00 29.42     0.227 C 
BRANCH  67  68
HETATM   68  O6  SGN C   4       2.583  11.694  49.165  1.00 33.38    -0.254 OA
BRANCH  68  69
HETATM   69  S2  SGN C   4       1.616  10.471  48.979  1.00 42.75     0.251 S 
HETATM   70  O4S SGN C   4       1.014  10.583  47.657  1.00 44.95    -0.572 OA
HETATM   71  O5S SGN C   4       2.444   9.284  49.131  1.00 42.87    -0.572 OA
HETATM   72  O6S SGN C   4       0.624  10.543  50.045  1.00 40.27    -0.572 OA
ENDBRANCH  68  69
ENDBRANCH  67  68
ENDBRANCH   5  67
BRANCH   4  73
HETATM   73  O4  SGN C   4       3.859  11.968  51.999  1.00 25.89    -0.348 OA
BRANCH  73  74
HETATM   74  C1  BDP C   5       2.564  11.911  52.635  1.00 28.36     0.292 C 
HETATM   75  C2  BDP C   5       2.324  10.541  53.194  1.00 31.13     0.204 C 
HETATM   76  C3  BDP C   5       0.951  10.433  53.759  1.00 33.85     0.183 C 
HETATM   77  C4  BDP C   5       0.660  11.541  54.715  1.00 31.81     0.195 C 
HETATM   78  C5  BDP C   5       1.104  12.863  54.130  1.00 27.14     0.257 C 
HETATM   79  O5  BDP C   5       2.424  12.814  53.676  1.00 24.75    -0.340 OA
BRANCH  75  80
HETATM   80  O2  BDP C   5       2.467   9.575  52.209  1.00 34.37    -0.388 OA
ATOM     81  H2  BDP C   5       1.861   9.730  51.494  1.00  0.00     0.210 HD
ENDBRANCH  75  80
BRANCH  76  82
HETATM   82  O3  BDP C   5       0.856   9.214  54.403  1.00 34.34    -0.390 OA
ATOM     83  H3  BDP C   5       1.393   8.591  53.926  1.00  0.00     0.210 HD
ENDBRANCH  76  82
BRANCH  77  84
HETATM   84  O4  BDP C   5      -0.714  11.615  54.941  1.00 33.34    -0.348 OA
BRANCH  84  85
HETATM   85  C1  NGY C   6      -1.134  11.061  56.210  1.00 35.33     0.286 C 
HETATM   86  C2  NGY C   6      -2.583  10.714  56.119  1.00 39.33     0.170 C 
HETATM   87  C3  NGY C   6      -3.361  11.974  55.973  1.00 39.13     0.177 C 
HETATM   88  C4  NGY C   6      -3.094  12.833  57.159  1.00 37.06     0.180 C 
HETATM   89  C5  NGY C   6      -1.626  13.107  57.194  1.00 32.98     0.181 C 
HETATM   90  O5  NGY C   6      -0.948  11.909  57.286  1.00 32.46    -0.349 OA
BRANCH  86  91
HETATM   91  N2  NGY C   6      -2.805   9.895  54.966  1.00 39.90    -0.349 N 
HETATM   92  C7  NGY C   6      -3.675   8.765  55.039  1.00 44.73     0.214 C 
HETATM   93  O7  NGY C   6      -4.237   8.488  56.089  1.00 46.19    -0.274 OA
HETATM   94  C8  NGY C   6      -3.889   7.928  53.822  1.00 43.79     0.117 C 
ATOM     95  H2  NGY C   6      -2.339  10.121  54.087  1.00  0.00     0.163 HD
ENDBRANCH  86  91
BRANCH  87  96
HETATM   96  O3  NGY C   6      -4.708  11.697  55.877  1.00 44.02    -0.391 OA
ATOM     97  H3  NGY C   6      -4.846  10.899  55.381  1.00  0.00     0.210 HD
ENDBRANCH  87  96
BRANCH  88  98
HETATM   98  O4  NGY C   6      -3.791  14.014  57.035  1.00 37.39    -0.390 OA
ATOM     99  H4  NGY C   6      -4.150  14.079  56.158  1.00  0.00     0.210 HD
ENDBRANCH  88  98
BRANCH  89 100
HETATM  100  C6  NGY C   6      -1.264  14.009  58.332  1.00 31.91     0.227 C 
BRANCH 100 101
HETATM  101  O6  NGY C   6      -1.200  15.333  57.940  1.00 36.15    -0.254 OA
BRANCH 101 102
HETATM  102  S   NGY C   6      -0.144  16.215  58.486  1.00 34.85     0.251 S 
HETATM  103  O7A NGY C   6       0.909  15.431  59.078  1.00 33.41    -0.572 OA
HETATM  104  O8  NGY C   6      -0.805  17.041  59.495  1.00 30.21    -0.572 OA
HETATM  105  O9  NGY C   6       0.398  17.020  57.417  1.00 38.01    -0.572 OA
ENDBRANCH 101 102
ENDBRANCH 100 101
ENDBRANCH  89 100
ENDBRANCH  84  85
ENDBRANCH  77  84
BRANCH  78 106
HETATM  106  C6  BDP C   5       0.931  14.010  55.080  1.00 29.31     0.206 C 
HETATM  107  O6A BDP C   5       0.096  14.912  54.821  1.00 32.10    -0.646 OA
HETATM  108  O6B BDP C   5       1.629  14.087  56.124  1.00 26.46    -0.646 OA
ENDBRANCH  78 106
ENDBRANCH  73  74
ENDBRANCH   4  73
TORSDOF 38
ENDMDL
MODEL 10
REMARK VINA RESULT:      -6.8      3.683      7.850
REMARK WARNING: 32 MAX_TORS EXCEEDED!!!
REMARK  38 active torsions:
REMARK  status: ('A' for Active; 'I' for Inactive)
REMARK    1  A    between atoms: C2_2  and  O2_3 
REMARK    2  A    between atoms: C3_5  and  O3_6 
REMARK    3  A    between atoms: C4_8  and  O4_9 
REMARK    4  A    between atoms: O4_9  and  C1_15 
REMARK    5  A    between atoms: C5_10  and  C6_12 
REMARK    6  A    between atoms: S1_17  and  N2_19 
REMARK    7  A    between atoms: C2_18  and  N2_19 
REMARK    8  A    between atoms: S2_22  and  O6_34 
REMARK    9  A    between atoms: C3_23  and  O3_24 
REMARK   10  A    between atoms: C4_27  and  O4_28 
REMARK   11  A    between atoms: O4_28  and  C1_36 
REMARK   12  A    between atoms: C5_30  and  C6_33 
REMARK   13  A    between atoms: C6_33  and  O6_34 
REMARK   14  A    between atoms: C2_38  and  O2_39 
REMARK   15  A    between atoms: O2_39  and  S_52 
REMARK   16  A    between atoms: C3_41  and  O3_42 
REMARK   17  A    between atoms: C4_45  and  O4_46 
REMARK   18  A    between atoms: O4_46  and  C1_53 
REMARK   19  A    between atoms: C5_47  and  C6_49 
REMARK   20  A    between atoms: S1_55  and  N2_57 
REMARK   21  A    between atoms: C2_56  and  N2_57 
REMARK   22  A    between atoms: S2_60  and  O6_72 
REMARK   23  A    between atoms: C3_61  and  O3_62 
REMARK   24  A    between atoms: C4_65  and  O4_66 
REMARK   25  A    between atoms: O4_66  and  C1_74 
REMARK   26  A    between atoms: C5_68  and  C6_71 
REMARK   27  A    between atoms: C6_71  and  O6_72 
REMARK   28  A    between atoms: C2_75  and  O2_76 
REMARK   29  A    between atoms: C3_78  and  O3_79 
REMARK   30  A    between atoms: C4_81  and  O4_82 
REMARK   31  A    between atoms: O4_82  and  C1_88 
REMARK   32  A    between atoms: C5_83  and  C6_85 
REMARK   33  A    between atoms: C2_89  and  N2_90 
REMARK       I    between atoms: N2_90  and  C7_102 
REMARK   34  A    between atoms: C3_92  and  O3_93 
REMARK   35  A    between atoms: C4_95  and  O4_96 
REMARK   36  A    between atoms: C5_98  and  C6_100 
REMARK   37  A    between atoms: C6_100  and  O6_101 
REMARK   38  A    between atoms: O6_101  and  S_108 
ROOT
HETATM    1  C1  SGN C   4      14.224  10.795  45.787  1.00 25.95     0.287 C 
HETATM    2  C2  SGN C   4      14.766   9.603  46.582  1.00 24.33     0.182 C 
HETATM    3  C3  SGN C   4      15.577  10.055  47.793  1.00 24.72     0.178 C 
HETATM    4  C4  SGN C   4      16.667  11.026  47.368  1.00 24.11     0.186 C 
HETATM    5  C5  SGN C   4      16.026  12.124  46.517  1.00 25.01     0.181 C 
HETATM    6  O5  SGN C   4      15.330  11.589  45.407  1.00 24.61    -0.349 OA
ENDROOT
BRANCH   1   7
HETATM    7  O4  IDS C   3      13.229  11.541  46.534  1.00 24.52    -0.348 OA
BRANCH   7   8
HETATM    8  C4  IDS C   3      12.488  12.378  45.696  1.00 32.57     0.195 C 
HETATM    9  C3  IDS C   3      12.027  11.676  44.449  1.00 36.22     0.185 C 
HETATM   10  C2  IDS C   3      10.677  10.999  44.555  1.00 37.49     0.231 C 
HETATM   11  C1  IDS C   3       9.706  11.783  45.383  1.00 32.35     0.294 C 
HETATM   12  O5  IDS C   3      10.291  12.096  46.587  1.00 29.95    -0.340 OA
HETATM   13  C5  IDS C   3      11.320  12.993  46.417  1.00 31.73     0.257 C 
BRANCH   9  14
HETATM   14  O3  IDS C   3      11.945  12.607  43.431  1.00 35.64    -0.390 OA
ATOM     15  H3  IDS C   3      11.125  12.458  42.974  1.00  0.00     0.210 HD
ENDBRANCH   9  14
BRANCH  10  16
HETATM   16  O2  IDS C   3      10.808   9.713  45.052  1.00 41.30    -0.244 OA
BRANCH  16  17
HETATM   17  S   IDS C   3      10.218   8.598  44.289  1.00 46.67     0.252 S 
HETATM   18  O1S IDS C   3      10.735   7.342  44.772  1.00 45.84    -0.572 OA
HETATM   19  O2S IDS C   3       8.766   8.684  44.490  1.00 43.53    -0.572 OA
HETATM   20  O3S IDS C   3      10.523   8.722  42.884  1.00 50.85    -0.572 OA
ENDBRANCH  16  17
ENDBRANCH  10  16
BRANCH  11  21
HETATM   21  O4  SGN C   2       9.209  12.913  44.625  1.00 35.63    -0.348 OA
BRANCH  21  22
HETATM   22  C4  SGN C   2       7.794  13.044  44.669  1.00 34.14     0.186 C 
HETATM   23  C3  SGN C   2       7.205  11.637  44.661  1.00 36.01     0.178 C 
HETATM   24  C2  SGN C   2       5.714  11.592  45.006  1.00 38.29     0.182 C 
HETATM   25  C1  SGN C   2       5.395  12.451  46.230  1.00 40.25     0.287 C 
HETATM   26  O5  SGN C   2       5.916  13.751  46.042  1.00 40.44    -0.349 OA
HETATM   27  C5  SGN C   2       7.337  13.768  45.934  1.00 39.12     0.181 C 
BRANCH  23  28
HETATM   28  O3  SGN C   2       7.410  11.040  43.403  1.00 37.94    -0.391 OA
ATOM     29  H3  SGN C   2       7.999  10.300  43.499  1.00  0.00     0.210 HD
ENDBRANCH  23  28
BRANCH  24  30
HETATM   30  N2  SGN C   2       5.377  10.203  45.253  1.00 38.07    -0.289 N 
ATOM     31  H2  SGN C   2       6.050   9.611  45.742  1.00  0.00     0.175 HD
BRANCH  30  32
HETATM   32  S1  SGN C   2       3.986   9.568  44.786  1.00 51.36     0.205 S 
HETATM   33  O1S SGN C   2       3.053   9.678  45.903  1.00 53.59    -0.578 OA
HETATM   34  O2S SGN C   2       3.522  10.349  43.644  1.00 50.52    -0.578 OA
HETATM   35  O3S SGN C   2       4.281   8.180  44.444  1.00 54.39    -0.578 OA
ENDBRANCH  30  32
ENDBRANCH  24  30
BRANCH  25  36
HETATM   36  O4  BDP C   1       5.918  11.797  47.409  1.00 42.04    -0.348 OA
BRANCH  36  37
HETATM   37  C4  BDP C   1       5.531  12.426  48.583  1.00 48.48     0.195 C 
HETATM   38  C3  BDP C   1       4.066  12.224  48.787  1.00 51.01     0.181 C 
HETATM   39  C2  BDP C   1       3.643  12.572  50.172  1.00 53.01     0.173 C 
HETATM   40  C1  BDP C   1       4.522  11.928  51.188  1.00 54.14     0.203 C 
HETATM   41  O5  BDP C   1       5.827  12.299  50.937  1.00 54.15    -0.370 OA
HETATM   42  C5  BDP C   1       6.309  11.823  49.725  1.00 51.87     0.253 C 
BRANCH  38  43
HETATM   43  O3  BDP C   1       3.364  13.031  47.913  1.00 52.92    -0.390 OA
ATOM     44  H3  BDP C   1       3.380  13.917  48.257  1.00  0.00     0.210 HD
ENDBRANCH  38  43
BRANCH  39  45
HETATM   45  O2  BDP C   1       2.350  12.132  50.376  1.00 53.19    -0.391 OA
ATOM     46  H2  BDP C   1       1.998  11.840  49.543  1.00  0.00     0.210 HD
ENDBRANCH  39  45
BRANCH  42  47
HETATM   47  C6  BDP C   1       7.775  12.120  49.637  1.00 51.57     0.205 C 
HETATM   48  O6A BDP C   1       8.608  11.178  49.674  1.00 52.65    -0.646 OA
HETATM   49  O6B BDP C   1       8.174  13.312  49.535  1.00 51.09    -0.646 OA
ENDBRANCH  42  47
ENDBRANCH  36  37
ENDBRANCH  25  36
BRANCH  27  50
HETATM   50  C6  SGN C   2       7.840  15.207  45.993  1.00 42.92     0.227 C 
BRANCH  50  51
HETATM   51  O6  SGN C   2       6.858  16.046  46.561  1.00 46.75    -0.254 OA
BRANCH  51  52
HETATM   52  S2  SGN C   2       7.161  16.829  47.881  1.00 56.56     0.251 S 
HETATM   53  O4S SGN C   2       6.499  16.110  48.967  1.00 58.52    -0.572 OA
HETATM   54  O5S SGN C   2       8.607  16.872  48.063  1.00 53.95    -0.572 OA
HETATM   55  O6S SGN C   2       6.628  18.174  47.712  1.00 54.13    -0.572 OA
ENDBRANCH  51  52
ENDBRANCH  50  51
ENDBRANCH  27  50
ENDBRANCH  21  22
ENDBRANCH  11  21
BRANCH  13  56
HETATM   56  C6  IDS C   3      11.755  13.463  47.769  1.00 33.29     0.206 C 
HETATM   57  O6A IDS C   3      12.528  14.449  47.881  1.00 34.35    -0.646 OA
HETATM   58  O6B IDS C   3      11.352  12.861  48.800  1.00 34.80    -0.646 OA
ENDBRANCH  13  56
ENDBRANCH   7   8
ENDBRANCH   1   7
BRANCH   2  59
HETATM   59  N2  SGN C   4      13.697   8.720  47.012  1.00 24.47    -0.289 N 
ATOM     60  H2  SGN C   4      12.851   9.085  47.453  1.00  0.00     0.175 HD
BRANCH  59  61
HETATM   61  S1  SGN C   4      13.897   7.155  46.766  1.00 23.01     0.205 S 
HETATM   62  O1S SGN C   4      12.587   6.540  46.657  1.00 23.82    -0.578 OA
HETATM   63  O2S SGN C   4      14.644   6.990  45.523  1.00 21.15    -0.578 OA
HETATM   64  O3S SGN C   4      14.647   6.677  47.925  1.00 24.34    -0.578 OA
ENDBRANCH  59  61
ENDBRANCH   2  59
BRANCH   3  65
HETATM   65  O3  SGN C   4      16.150   8.927  48.427  1.00 24.01    -0.391 OA
ATOM     66  H3  SGN C   4      16.676   9.211  49.165  1.00  0.00     0.210 HD
ENDBRANCH   3  65
BRANCH   5  67
HETATM   67  C6  SGN C   4      17.055  13.116  45.990  1.00 29.42     0.227 C 
BRANCH  67  68
HETATM   68  O6  SGN C   4      17.407  12.803  44.660  1.00 33.38    -0.254 OA
BRANCH  68  69
HETATM   69  S2  SGN C   4      18.734  12.001  44.417  1.00 42.75     0.251 S 
HETATM   70  O4S SGN C   4      18.370  10.611  44.173  1.00 44.95    -0.572 OA
HETATM   71  O5S SGN C   4      19.375  12.632  43.273  1.00 42.87    -0.572 OA
HETATM   72  O6S SGN C   4      19.553  12.153  45.613  1.00 40.27    -0.572 OA
ENDBRANCH  68  69
ENDBRANCH  67  68
ENDBRANCH   5  67
BRANCH   4  73
HETATM   73  O4  SGN C   4      17.227  11.586  48.547  1.00 25.89    -0.348 OA
BRANCH  73  74
HETATM   74  C1  BDP C   5      16.414  12.611  49.154  1.00 28.36     0.292 C 
HETATM   75  C2  BDP C   5      16.080  12.237  50.566  1.00 31.13     0.204 C 
HETATM   76  C3  BDP C   5      15.153  13.232  51.173  1.00 33.85     0.183 C 
HETATM   77  C4  BDP C   5      15.663  14.626  51.017  1.00 31.81     0.195 C 
HETATM   78  C5  BDP C   5      16.143  14.848  49.600  1.00 27.14     0.257 C 
HETATM   79  O5  BDP C   5      17.031  13.852  49.189  1.00 24.75    -0.340 OA
BRANCH  75  80
HETATM   80  O2  BDP C   5      15.473  10.991  50.615  1.00 34.37    -0.388 OA
ATOM     81  H2  BDP C   5      15.942  10.366  50.075  1.00  0.00     0.210 HD
ENDBRANCH  75  80
BRANCH  76  82
HETATM   82  O3  BDP C   5      15.023  12.923  52.514  1.00 34.34    -0.390 OA
ATOM     83  H3  BDP C   5      15.659  12.247  52.719  1.00  0.00     0.210 HD
ENDBRANCH  76  82
BRANCH  77  84
HETATM   84  O4  BDP C   5      14.631  15.531  51.264  1.00 33.34    -0.348 OA
BRANCH  84  85
HETATM   85  C1  NGY C   6      14.272  15.650  52.661  1.00 35.33     0.286 C 
HETATM   86  C2  NGY C   6      13.256  16.735  52.798  1.00 39.33     0.170 C 
HETATM   87  C3  NGY C   6      13.903  18.032  52.456  1.00 39.13     0.177 C 
HETATM   88  C4  NGY C   6      15.044  18.249  53.388  1.00 37.06     0.180 C 
HETATM   89  C5  NGY C   6      15.993  17.110  53.210  1.00 32.98     0.181 C 
HETATM   90  O5  NGY C   6      15.337  15.931  53.496  1.00 32.46    -0.349 OA
BRANCH  86  91
HETATM   91  N2  NGY C   6      12.180  16.498  51.885  1.00 39.90    -0.349 N 
HETATM   92  C7  NGY C   6      10.831  16.754  52.277  1.00 44.73     0.214 C 
HETATM   93  O7  NGY C   6      10.585  17.177  53.398  1.00 46.19    -0.274 OA
HETATM   94  C8  NGY C   6       9.727  16.499  51.305  1.00 43.79     0.117 C 
ATOM     95  H2  NGY C   6      12.378  16.145  50.949  1.00  0.00     0.163 HD
ENDBRANCH  86  91
BRANCH  87  96
HETATM   96  O3  NGY C   6      12.995  19.062  52.563  1.00 44.02    -0.391 OA
ATOM     97  H3  NGY C   6      12.653  19.291  51.707  1.00  0.00     0.210 HD
ENDBRANCH  87  96
BRANCH  88  98
HETATM   98  O4  NGY C   6      15.668  19.436  53.077  1.00 37.39    -0.390 OA
ATOM     99  H4  NGY C   6      15.032  20.141  53.093  1.00  0.00     0.210 HD
ENDBRANCH  88  98
BRANCH  89 100
HETATM  100  C6  NGY C   6      17.204  17.266  54.076  1.00 31.91     0.227 C 
BRANCH 100 101
HETATM  101  O6  NGY C   6      17.817  16.053  54.329  1.00 36.15    -0.254 OA
BRANCH 101 102
HETATM  102  S   NGY C   6      19.051  15.683  53.602  1.00 34.85     0.251 S 
HETATM  103  O7A NGY C   6      20.069  15.253  54.525  1.00 33.41    -0.572 OA
HETATM  104  O8  NGY C   6      19.470  16.894  52.898  1.00 30.21    -0.572 OA
HETATM  105  O9  NGY C   6      18.754  14.613  52.679  1.00 38.01    -0.572 OA
ENDBRANCH 101 102
ENDBRANCH 100 101
ENDBRANCH  89 100
ENDBRANCH  84  85
ENDBRANCH  77  84
BRANCH  78 106
HETATM  106  C6  BDP C   5      16.760  16.199  49.397  1.00 29.31     0.206 C 
HETATM  107  O6A BDP C   5      16.394  16.911  48.428  1.00 32.10    -0.646 OA
HETATM  108  O6B BDP C   5      17.653  16.619  50.177  1.00 26.46    -0.646 OA
ENDBRANCH  78 106
ENDBRANCH  73  74
ENDBRANCH   4  73
TORSDOF 38
ENDMDL
MODEL 11
REMARK VINA RESULT:      -6.8      3.820     14.929
REMARK WARNING: 32 MAX_TORS EXCEEDED!!!
REMARK  38 active torsions:
REMARK  status: ('A' for Active; 'I' for Inactive)
REMARK    1  A    between atoms: C2_2  and  O2_3 
REMARK    2  A    between atoms: C3_5  and  O3_6 
REMARK    3  A    between atoms: C4_8  and  O4_9 
REMARK    4  A    between atoms: O4_9  and  C1_15 
REMARK    5  A    between atoms: C5_10  and  C6_12 
REMARK    6  A    between atoms: S1_17  and  N2_19 
REMARK    7  A    between atoms: C2_18  and  N2_19 
REMARK    8  A    between atoms: S2_22  and  O6_34 
REMARK    9  A    between atoms: C3_23  and  O3_24 
REMARK   10  A    between atoms: C4_27  and  O4_28 
REMARK   11  A    between atoms: O4_28  and  C1_36 
REMARK   12  A    between atoms: C5_30  and  C6_33 
REMARK   13  A    between atoms: C6_33  and  O6_34 
REMARK   14  A    between atoms: C2_38  and  O2_39 
REMARK   15  A    between atoms: O2_39  and  S_52 
REMARK   16  A    between atoms: C3_41  and  O3_42 
REMARK   17  A    between atoms: C4_45  and  O4_46 
REMARK   18  A    between atoms: O4_46  and  C1_53 
REMARK   19  A    between atoms: C5_47  and  C6_49 
REMARK   20  A    between atoms: S1_55  and  N2_57 
REMARK   21  A    between atoms: C2_56  and  N2_57 
REMARK   22  A    between atoms: S2_60  and  O6_72 
REMARK   23  A    between atoms: C3_61  and  O3_62 
REMARK   24  A    between atoms: C4_65  and  O4_66 
REMARK   25  A    between atoms: O4_66  and  C1_74 
REMARK   26  A    between atoms: C5_68  and  C6_71 
REMARK   27  A    between atoms: C6_71  and  O6_72 
REMARK   28  A    between atoms: C2_75  and  O2_76 
REMARK   29  A    between atoms: C3_78  and  O3_79 
REMARK   30  A    between atoms: C4_81  and  O4_82 
REMARK   31  A    between atoms: O4_82  and  C1_88 
REMARK   32  A    between atoms: C5_83  and  C6_85 
REMARK   33  A    between atoms: C2_89  and  N2_90 
REMARK       I    between atoms: N2_90  and  C7_102 
REMARK   34  A    between atoms: C3_92  and  O3_93 
REMARK   35  A    between atoms: C4_95  and  O4_96 
REMARK   36  A    between atoms: C5_98  and  C6_100 
REMARK   37  A    between atoms: C6_100  and  O6_101 
REMARK   38  A    between atoms: O6_101  and  S_108 
ROOT
HETATM    1  C1  SGN C   4       8.662  14.549  48.695  1.00 25.95     0.287 C 
HETATM    2  C2  SGN C   4       7.284  14.072  49.166  1.00 24.33     0.182 C 
HETATM    3  C3  SGN C   4       7.019  12.625  48.759  1.00 24.72     0.178 C 
HETATM    4  C4  SGN C   4       7.225  12.450  47.262  1.00 24.11     0.186 C 
HETATM    5  C5  SGN C   4       8.591  13.031  46.895  1.00 25.01     0.181 C 
HETATM    6  O5  SGN C   4       8.710  14.385  47.292  1.00 24.61    -0.349 OA
ENDROOT
BRANCH   1   7
HETATM    7  O4  IDS C   3       9.739  13.858  49.378  1.00 24.52    -0.348 OA
BRANCH   7   8
HETATM    8  C4  IDS C   3      10.891  13.812  48.588  1.00 32.57     0.195 C 
HETATM    9  C3  IDS C   3      11.756  15.028  48.765  1.00 36.22     0.185 C 
HETATM   10  C2  IDS C   3      12.799  14.922  49.857  1.00 37.49     0.231 C 
HETATM   11  C1  IDS C   3      13.397  13.552  49.948  1.00 32.35     0.294 C 
HETATM   12  O5  IDS C   3      12.386  12.623  50.023  1.00 29.95    -0.340 OA
HETATM   13  C5  IDS C   3      11.687  12.559  48.839  1.00 31.73     0.257 C 
BRANCH   9  14
HETATM   14  O3  IDS C   3      12.422  15.265  47.578  1.00 35.64    -0.390 OA
ATOM     15  H3  IDS C   3      11.949  14.812  46.890  1.00  0.00     0.210 HD
ENDBRANCH   9  14
BRANCH  10  16
HETATM   16  O2  IDS C   3      12.273  15.301  51.080  1.00 41.30    -0.244 OA
BRANCH  16  17
HETATM   17  S   IDS C   3      12.434  16.700  51.516  1.00 46.67     0.252 S 
HETATM   18  O1S IDS C   3      11.238  17.449  51.222  1.00 45.84    -0.572 OA
HETATM   19  O2S IDS C   3      12.685  16.653  52.963  1.00 43.53    -0.572 OA
HETATM   20  O3S IDS C   3      13.553  17.318  50.847  1.00 50.85    -0.572 OA
ENDBRANCH  16  17
ENDBRANCH  10  16
BRANCH  11  21
HETATM   21  O4  SGN C   2      14.341  13.352  48.866  1.00 35.63    -0.348 OA
BRANCH  21  22
HETATM   22  C4  SGN C   2      15.205  12.241  49.070  1.00 34.14     0.186 C 
HETATM   23  C3  SGN C   2      14.936  11.242  47.949  1.00 36.01     0.178 C 
HETATM   24  C2  SGN C   2      15.986  10.133  47.849  1.00 38.29     0.182 C 
HETATM   25  C1  SGN C   2      17.406  10.696  47.925  1.00 40.25     0.287 C 
HETATM   26  O5  SGN C   2      17.526  11.518  49.069  1.00 40.44    -0.349 OA
HETATM   27  C5  SGN C   2      16.675  12.659  49.022  1.00 39.12     0.181 C 
BRANCH  23  28
HETATM   28  O3  SGN C   2      13.664  10.665  48.120  1.00 37.94    -0.391 OA
ATOM     29  H3  SGN C   2      13.685  10.070  48.861  1.00  0.00     0.210 HD
ENDBRANCH  23  28
BRANCH  24  30
HETATM   30  N2  SGN C   2      15.771   9.457  46.584  1.00 38.07    -0.289 N 
ATOM     31  H2  SGN C   2      16.268   9.788  45.756  1.00  0.00     0.175 HD
BRANCH  30  32
HETATM   32  S1  SGN C   2      14.781   8.209  46.442  1.00 51.36     0.205 S 
HETATM   33  O1S SGN C   2      15.396   7.259  45.523  1.00 53.59    -0.578 OA
HETATM   34  O2S SGN C   2      14.637   7.626  47.773  1.00 50.52    -0.578 OA
HETATM   35  O3S SGN C   2      13.531   8.755  45.923  1.00 54.39    -0.578 OA
ENDBRANCH  30  32
ENDBRANCH  24  30
BRANCH  25  36
HETATM   36  O4  BDP C   1      17.699  11.394  46.693  1.00 42.04    -0.348 OA
BRANCH  36  37
HETATM   37  C4  BDP C   1      19.050  11.671  46.545  1.00 48.48     0.195 C 
HETATM   38  C3  BDP C   1      19.817  10.391  46.573  1.00 51.01     0.181 C 
HETATM   39  C2  BDP C   1      21.215  10.568  46.088  1.00 53.01     0.173 C 
HETATM   40  C1  BDP C   1      21.253  11.307  44.796  1.00 54.14     0.203 C 
HETATM   41  O5  BDP C   1      20.606  12.513  44.960  1.00 54.15    -0.370 OA
HETATM   42  C5  BDP C   1      19.250  12.376  45.228  1.00 51.87     0.253 C 
BRANCH  38  43
HETATM   43  O3  BDP C   1      19.874   9.915  47.868  1.00 52.92    -0.390 OA
ATOM     44  H3  BDP C   1      20.200   9.023  47.838  1.00  0.00     0.210 HD
ENDBRANCH  38  43
BRANCH  39  45
HETATM   45  O2  BDP C   1      21.790   9.327  45.898  1.00 53.19    -0.391 OA
ATOM     46  H2  BDP C   1      21.748   9.116  44.973  1.00  0.00     0.210 HD
ENDBRANCH  39  45
BRANCH  42  47
HETATM   47  C6  BDP C   1      18.612  13.732  45.204  1.00 51.57     0.205 C 
HETATM   48  O6A BDP C   1      18.827  14.542  46.142  1.00 52.65    -0.646 OA
HETATM   49  O6B BDP C   1      17.855  14.056  44.250  1.00 51.09    -0.646 OA
ENDBRANCH  42  47
ENDBRANCH  36  37
ENDBRANCH  25  36
BRANCH  27  50
HETATM   50  C6  SGN C   2      17.041  13.620  50.149  1.00 42.92     0.227 C 
BRANCH  50  51
HETATM   51  O6  SGN C   2      17.687  14.760  49.628  1.00 46.75    -0.254 OA
BRANCH  51  52
HETATM   52  S2  SGN C   2      19.207  15.002  49.914  1.00 56.56     0.251 S 
HETATM   53  O4S SGN C   2      19.529  16.337  49.412  1.00 58.52    -0.572 OA
HETATM   54  O5S SGN C   2      19.421  14.899  51.352  1.00 53.95    -0.572 OA
HETATM   55  O6S SGN C   2      19.945  13.962  49.211  1.00 54.13    -0.572 OA
ENDBRANCH  51  52
ENDBRANCH  50  51
ENDBRANCH  27  50
ENDBRANCH  21  22
ENDBRANCH  11  21
BRANCH  13  56
HETATM   56  C6  IDS C   3      10.764  11.383  48.908  1.00 33.29     0.206 C 
HETATM   57  O6A IDS C   3      10.155  11.115  49.976  1.00 34.35    -0.646 OA
HETATM   58  O6B IDS C   3      10.605  10.652  47.895  1.00 34.80    -0.646 OA
ENDBRANCH  13  56
ENDBRANCH   7   8
ENDBRANCH   1   7
BRANCH   2  59
HETATM   59  N2  SGN C   4       7.136  14.210  50.603  1.00 24.47    -0.289 N 
ATOM     60  H2  SGN C   4       7.799  13.780  51.250  1.00  0.00     0.175 HD
BRANCH  59  61
HETATM   61  S1  SGN C   4       5.893  15.062  51.132  1.00 23.01     0.205 S 
HETATM   62  O1S SGN C   4       4.893  15.109  50.081  1.00 23.82    -0.578 OA
HETATM   63  O2S SGN C   4       5.362  14.391  52.314  1.00 21.15    -0.578 OA
HETATM   64  O3S SGN C   4       6.438  16.381  51.447  1.00 24.34    -0.578 OA
ENDBRANCH  59  61
ENDBRANCH   2  59
BRANCH   3  65
HETATM   65  O3  SGN C   4       5.696  12.269  49.113  1.00 24.01    -0.391 OA
ATOM     66  H3  SGN C   4       5.598  12.311  50.057  1.00  0.00     0.210 HD
ENDBRANCH   3  65
BRANCH   5  67
HETATM   67  C6  SGN C   4       8.864  12.957  45.398  1.00 29.42     0.227 C 
BRANCH  67  68
HETATM   68  O6  SGN C   4       9.474  11.730  45.067  1.00 33.38    -0.254 OA
BRANCH  68  69
HETATM   69  S2  SGN C   4      10.838  11.770  44.291  1.00 42.75     0.251 S 
HETATM   70  O4S SGN C   4      11.017  10.475  43.647  1.00 44.95    -0.572 OA
HETATM   71  O5S SGN C   4      10.722  12.868  43.342  1.00 42.87    -0.572 OA
HETATM   72  O6S SGN C   4      11.882  12.047  45.271  1.00 40.27    -0.572 OA
ENDBRANCH  68  69
ENDBRANCH  67  68
ENDBRANCH   5  67
BRANCH   4  73
HETATM   73  O4  SGN C   4       7.195  11.058  46.985  1.00 25.89    -0.348 OA
BRANCH  73  74
HETATM   74  C1  BDP C   5       6.214  10.676  45.998  1.00 28.36     0.292 C 
HETATM   75  C2  BDP C   5       6.542   9.325  45.439  1.00 31.13     0.204 C 
HETATM   76  C3  BDP C   5       5.601   8.962  44.344  1.00 33.85     0.183 C 
HETATM   77  C4  BDP C   5       4.178   9.117  44.767  1.00 31.81     0.195 C 
HETATM   78  C5  BDP C   5       3.989  10.437  45.481  1.00 27.14     0.257 C 
HETATM   79  O5  BDP C   5       4.925  10.614  46.503  1.00 24.75    -0.340 OA
BRANCH  75  80
HETATM   80  O2  BDP C   5       7.832   9.303  44.930  1.00 34.37    -0.388 OA
ATOM     81  H2  BDP C   5       8.470   9.417  45.625  1.00  0.00     0.210 HD
ENDBRANCH  75  80
BRANCH  76  82
HETATM   82  O3  BDP C   5       5.851   7.649  43.993  1.00 34.34    -0.390 OA
ATOM     83  H3  BDP C   5       6.156   7.643  43.093  1.00  0.00     0.210 HD
ENDBRANCH  76  82
BRANCH  77  84
HETATM   84  O4  BDP C   5       3.354   9.120  43.642  1.00 33.34    -0.348 OA
BRANCH  84  85
HETATM   85  C1  NGY C   6       3.687   8.107  42.663  1.00 35.33     0.286 C 
HETATM   86  C2  NGY C   6       3.280   8.600  41.314  1.00 39.33     0.170 C 
HETATM   87  C3  NGY C   6       1.795   8.696  41.277  1.00 39.13     0.177 C 
HETATM   88  C4  NGY C   6       1.228   7.346  41.544  1.00 37.06     0.180 C 
HETATM   89  C5  NGY C   6       1.707   6.916  42.892  1.00 32.98     0.181 C 
HETATM   90  O5  NGY C   6       3.086   6.884  42.889  1.00 32.46    -0.349 OA
BRANCH  86  91
HETATM   91  N2  NGY C   6       3.835   9.900  41.094  1.00 39.90    -0.349 N 
HETATM   92  C7  NGY C   6       4.261  10.293  39.789  1.00 44.73     0.214 C 
HETATM   93  O7  NGY C   6       4.154   9.518  38.848  1.00 46.19    -0.274 OA
HETATM   94  C8  NGY C   6       4.836  11.655  39.587  1.00 43.79     0.117 C 
ATOM     95  H2  NGY C   6       3.927  10.551  41.875  1.00  0.00     0.163 HD
ENDBRANCH  86  91
BRANCH  87  96
HETATM   96  O3  NGY C   6       1.375   9.156  40.048  1.00 44.02    -0.391 OA
ATOM     97  H3  NGY C   6       0.676   8.609  39.711  1.00  0.00     0.210 HD
ENDBRANCH  87  96
BRANCH  88  98
HETATM   98  O4  NGY C   6      -0.147   7.416  41.532  1.00 37.39    -0.390 OA
ATOM     99  H4  NGY C   6      -0.506   6.663  41.987  1.00  0.00     0.210 HD
ENDBRANCH  88  98
BRANCH  89 100
HETATM  100  C6  NGY C   6       1.146   5.581  43.273  1.00 31.91     0.227 C 
BRANCH 100 101
HETATM  101  O6  NGY C   6       0.549   5.608  44.519  1.00 36.15    -0.254 OA
BRANCH 101 102
HETATM  102  S   NGY C   6      -0.886   5.948  44.643  1.00 34.85     0.251 S 
HETATM  103  O7A NGY C   6      -1.580   5.655  43.415  1.00 33.41    -0.572 OA
HETATM  104  O8  NGY C   6      -0.927   7.381  44.931  1.00 30.21    -0.572 OA
HETATM  105  O9  NGY C   6      -1.463   5.177  45.719  1.00 38.01    -0.572 OA
ENDBRANCH 101 102
ENDBRANCH 100 101
ENDBRANCH  89 100
ENDBRANCH  84  85
ENDBRANCH  77  84
BRANCH  78 106
HETATM  106  C6  BDP C   5       2.602  10.615  46.020  1.00 29.31     0.206 C 
HETATM  107  O6A BDP C   5       2.016  11.718  45.879  1.00 32.10    -0.646 OA
HETATM  108  O6B BDP C   5       2.026   9.677  46.630  1.00 26.46    -0.646 OA
ENDBRANCH  78 106
ENDBRANCH  73  74
ENDBRANCH   4  73
TORSDOF 38
ENDMDL
MODEL 12
REMARK VINA RESULT:      -6.7      3.063      4.807
REMARK WARNING: 32 MAX_TORS EXCEEDED!!!
REMARK  38 active torsions:
REMARK  status: ('A' for Active; 'I' for Inactive)
REMARK    1  A    between atoms: C2_2  and  O2_3 
REMARK    2  A    between atoms: C3_5  and  O3_6 
REMARK    3  A    between atoms: C4_8  and  O4_9 
REMARK    4  A    between atoms: O4_9  and  C1_15 
REMARK    5  A    between atoms: C5_10  and  C6_12 
REMARK    6  A    between atoms: S1_17  and  N2_19 
REMARK    7  A    between atoms: C2_18  and  N2_19 
REMARK    8  A    between atoms: S2_22  and  O6_34 
REMARK    9  A    between atoms: C3_23  and  O3_24 
REMARK   10  A    between atoms: C4_27  and  O4_28 
REMARK   11  A    between atoms: O4_28  and  C1_36 
REMARK   12  A    between atoms: C5_30  and  C6_33 
REMARK   13  A    between atoms: C6_33  and  O6_34 
REMARK   14  A    between atoms: C2_38  and  O2_39 
REMARK   15  A    between atoms: O2_39  and  S_52 
REMARK   16  A    between atoms: C3_41  and  O3_42 
REMARK   17  A    between atoms: C4_45  and  O4_46 
REMARK   18  A    between atoms: O4_46  and  C1_53 
REMARK   19  A    between atoms: C5_47  and  C6_49 
REMARK   20  A    between atoms: S1_55  and  N2_57 
REMARK   21  A    between atoms: C2_56  and  N2_57 
REMARK   22  A    between atoms: S2_60  and  O6_72 
REMARK   23  A    between atoms: C3_61  and  O3_62 
REMARK   24  A    between atoms: C4_65  and  O4_66 
REMARK   25  A    between atoms: O4_66  and  C1_74 
REMARK   26  A    between atoms: C5_68  and  C6_71 
REMARK   27  A    between atoms: C6_71  and  O6_72 
REMARK   28  A    between atoms: C2_75  and  O2_76 
REMARK   29  A    between atoms: C3_78  and  O3_79 
REMARK   30  A    between atoms: C4_81  and  O4_82 
REMARK   31  A    between atoms: O4_82  and  C1_88 
REMARK   32  A    between atoms: C5_83  and  C6_85 
REMARK   33  A    between atoms: C2_89  and  N2_90 
REMARK       I    between atoms: N2_90  and  C7_102 
REMARK   34  A    between atoms: C3_92  and  O3_93 
REMARK   35  A    between atoms: C4_95  and  O4_96 
REMARK   36  A    between atoms: C5_98  and  C6_100 
REMARK   37  A    between atoms: C6_100  and  O6_101 
REMARK   38  A    between atoms: O6_101  and  S_108 
ROOT
HETATM    1  C1  SGN C   4      12.262  10.012  45.600  1.00 25.95     0.287 C 
HETATM    2  C2  SGN C   4      13.455   9.103  45.914  1.00 24.33     0.182 C 
HETATM    3  C3  SGN C   4      14.558   9.853  46.653  1.00 24.72     0.178 C 
HETATM    4  C4  SGN C   4      14.955  11.104  45.884  1.00 24.11     0.186 C 
HETATM    5  C5  SGN C   4      13.684  11.890  45.558  1.00 25.01     0.181 C 
HETATM    6  O5  SGN C   4      12.749  11.103  44.844  1.00 24.61    -0.349 OA
ENDROOT
BRANCH   1   7
HETATM    7  O4  IDS C   3      11.567  10.430  46.803  1.00 24.52    -0.348 OA
BRANCH   7   8
HETATM    8  C4  IDS C   3      10.892  11.638  46.603  1.00 32.57     0.195 C 
HETATM    9  C3  IDS C   3      10.173  11.681  45.284  1.00 36.22     0.185 C 
HETATM   10  C2  IDS C   3       8.748  11.174  45.311  1.00 37.49     0.231 C 
HETATM   11  C1  IDS C   3       8.031  11.546  46.573  1.00 32.35     0.294 C 
HETATM   12  O5  IDS C   3       8.797  11.174  47.653  1.00 29.95    -0.340 OA
HETATM   13  C5  IDS C   3       9.941  11.936  47.731  1.00 31.73     0.257 C 
BRANCH   9  14
HETATM   14  O3  IDS C   3      10.139  12.992  44.850  1.00 35.64    -0.390 OA
ATOM     15  H3  IDS C   3      11.035  13.263  44.688  1.00  0.00     0.210 HD
ENDBRANCH   9  14
BRANCH  10  16
HETATM   16  O2  IDS C   3       8.707   9.804  45.120  1.00 41.30    -0.244 OA
BRANCH  16  17
HETATM   17  S   IDS C   3       8.482   9.287  43.757  1.00 46.67     0.252 S 
HETATM   18  O1S IDS C   3       7.478   8.254  43.781  1.00 45.84    -0.572 OA
HETATM   19  O2S IDS C   3       8.043  10.433  42.951  1.00 43.53    -0.572 OA
HETATM   20  O3S IDS C   3       9.702   8.745  43.209  1.00 50.85    -0.572 OA
ENDBRANCH  16  17
ENDBRANCH  10  16
BRANCH  11  21
HETATM   21  O4  SGN C   2       7.656  12.945  46.534  1.00 35.63    -0.348 OA
BRANCH  21  22
HETATM   22  C4  SGN C   2       6.402  13.211  47.150  1.00 34.14     0.186 C 
HETATM   23  C3  SGN C   2       6.685  13.834  48.512  1.00 36.01     0.178 C 
HETATM   24  C2  SGN C   2       5.451  14.451  49.175  1.00 38.29     0.182 C 
HETATM   25  C1  SGN C   2       4.657  15.312  48.191  1.00 40.25     0.287 C 
HETATM   26  O5  SGN C   2       4.385  14.562  47.024  1.00 40.44    -0.349 OA
HETATM   27  C5  SGN C   2       5.565  14.185  46.321  1.00 39.12     0.181 C 
BRANCH  23  28
HETATM   28  O3  SGN C   2       7.241  12.868  49.373  1.00 37.94    -0.391 OA
ATOM     29  H3  SGN C   2       6.640  12.137  49.455  1.00  0.00     0.210 HD
ENDBRANCH  23  28
BRANCH  24  30
HETATM   30  N2  SGN C   2       5.923  15.251  50.290  1.00 38.07    -0.289 N 
ATOM     31  H2  SGN C   2       6.153  16.232  50.130  1.00  0.00     0.175 HD
BRANCH  30  32
HETATM   32  S1  SGN C   2       6.093  14.647  51.760  1.00 51.36     0.205 S 
HETATM   33  O1S SGN C   2       5.361  13.385  51.807  1.00 53.59    -0.578 OA
HETATM   34  O2S SGN C   2       7.521  14.427  51.968  1.00 50.52    -0.578 OA
HETATM   35  O3S SGN C   2       5.533  15.647  52.664  1.00 54.39    -0.578 OA
ENDBRANCH  30  32
ENDBRANCH  24  30
BRANCH  25  36
HETATM   36  O4  BDP C   1       5.399  16.524  47.925  1.00 42.04    -0.348 OA
BRANCH  36  37
HETATM   37  C4  BDP C   1       4.624  17.503  47.323  1.00 48.48     0.195 C 
HETATM   38  C3  BDP C   1       3.512  17.881  48.244  1.00 51.01     0.181 C 
HETATM   39  C2  BDP C   1       2.845  19.145  47.822  1.00 53.01     0.173 C 
HETATM   40  C1  BDP C   1       3.838  20.220  47.547  1.00 54.14     0.203 C 
HETATM   41  O5  BDP C   1       4.727  19.762  46.597  1.00 54.15    -0.370 OA
HETATM   42  C5  BDP C   1       5.499  18.696  47.038  1.00 51.87     0.253 C 
BRANCH  38  43
HETATM   43  O3  BDP C   1       2.559  16.881  48.253  1.00 52.92    -0.390 OA
ATOM     44  H3  BDP C   1       1.910  17.101  48.911  1.00  0.00     0.210 HD
ENDBRANCH  38  43
BRANCH  39  45
HETATM   45  O2  BDP C   1       2.006  19.575  48.833  1.00 53.19    -0.391 OA
ATOM     46  H2  BDP C   1       1.894  18.863  49.452  1.00  0.00     0.210 HD
ENDBRANCH  39  45
BRANCH  42  47
HETATM   47  C6  BDP C   1       6.549  18.401  46.009  1.00 51.57     0.205 C 
HETATM   48  O6A BDP C   1       7.753  18.678  46.246  1.00 52.65    -0.646 OA
HETATM   49  O6B BDP C   1       6.225  17.885  44.906  1.00 51.09    -0.646 OA
ENDBRANCH  42  47
ENDBRANCH  36  37
ENDBRANCH  25  36
BRANCH  27  50
HETATM   50  C6  SGN C   2       5.190  13.612  44.957  1.00 42.92     0.227 C 
BRANCH  50  51
HETATM   51  O6  SGN C   2       5.691  14.436  43.927  1.00 46.75    -0.254 OA
BRANCH  51  52
HETATM   52  S2  SGN C   2       6.095  13.813  42.549  1.00 56.56     0.251 S 
HETATM   53  O4S SGN C   2       5.637  14.736  41.512  1.00 58.52    -0.572 OA
HETATM   54  O5S SGN C   2       7.544  13.654  42.530  1.00 53.95    -0.572 OA
HETATM   55  O6S SGN C   2       5.437  12.517  42.456  1.00 54.13    -0.572 OA
ENDBRANCH  51  52
ENDBRANCH  50  51
ENDBRANCH  27  50
ENDBRANCH  21  22
ENDBRANCH  11  21
BRANCH  13  56
HETATM   56  C6  IDS C   3      10.605  11.642  49.039  1.00 33.29     0.206 C 
HETATM   57  O6A IDS C   3      11.654  12.252  49.371  1.00 34.35    -0.646 OA
HETATM   58  O6B IDS C   3      10.116  10.771  49.808  1.00 34.80    -0.646 OA
ENDBRANCH  13  56
ENDBRANCH   7   8
ENDBRANCH   1   7
BRANCH   2  59
HETATM   59  N2  SGN C   4      13.050   7.943  46.687  1.00 24.47    -0.289 N 
ATOM     60  H2  SGN C   4      12.332   8.010  47.410  1.00  0.00     0.175 HD
BRANCH  59  61
HETATM   61  S1  SGN C   4      13.773   6.557  46.360  1.00 23.01     0.205 S 
HETATM   62  O1S SGN C   4      14.598   6.194  47.498  1.00 23.82    -0.578 OA
HETATM   63  O2S SGN C   4      12.737   5.553  46.139  1.00 21.15    -0.578 OA
HETATM   64  O3S SGN C   4      14.559   6.810  45.154  1.00 24.34    -0.578 OA
ENDBRANCH  59  61
ENDBRANCH   2  59
BRANCH   3  65
HETATM   65  O3  SGN C   4      15.679   9.006  46.817  1.00 24.01    -0.391 OA
ATOM     66  H3  SGN C   4      15.783   8.791  47.736  1.00  0.00     0.210 HD
ENDBRANCH   3  65
BRANCH   5  67
HETATM   67  C6  SGN C   4      13.976  13.135  44.730  1.00 29.42     0.227 C 
BRANCH  67  68
HETATM   68  O6  SGN C   4      14.964  12.864  43.761  1.00 33.38    -0.254 OA
BRANCH  68  69
HETATM   69  S2  SGN C   4      15.345  14.008  42.756  1.00 42.75     0.251 S 
HETATM   70  O4S SGN C   4      16.293  13.455  41.797  1.00 44.95    -0.572 OA
HETATM   71  O5S SGN C   4      14.094  14.431  42.143  1.00 42.87    -0.572 OA
HETATM   72  O6S SGN C   4      15.924  15.093  43.540  1.00 40.27    -0.572 OA
ENDBRANCH  68  69
ENDBRANCH  67  68
ENDBRANCH   5  67
BRANCH   4  73
HETATM   73  O4  SGN C   4      15.804  11.873  46.724  1.00 25.89    -0.348 OA
BRANCH  73  74
HETATM   74  C1  BDP C   5      17.136  12.057  46.202  1.00 28.36     0.292 C 
HETATM   75  C2  BDP C   5      17.625  13.439  46.510  1.00 31.13     0.204 C 
HETATM   76  C3  BDP C   5      18.955  13.682  45.887  1.00 33.85     0.183 C 
HETATM   77  C4  BDP C   5      19.928  12.603  46.227  1.00 31.81     0.195 C 
HETATM   78  C5  BDP C   5      19.281  11.247  46.054  1.00 27.14     0.257 C 
HETATM   79  O5  BDP C   5      18.058  11.165  46.726  1.00 24.75    -0.340 OA
BRANCH  75  80
HETATM   80  O2  BDP C   5      16.739  14.393  46.031  1.00 34.37    -0.388 OA
ATOM     81  H2  BDP C   5      16.143  14.011  45.398  1.00  0.00     0.210 HD
ENDBRANCH  75  80
BRANCH  76  82
HETATM   82  O3  BDP C   5      19.419  14.901  46.346  1.00 34.34    -0.390 OA
ATOM     83  H3  BDP C   5      19.546  14.827  47.286  1.00  0.00     0.210 HD
ENDBRANCH  76  82
BRANCH  77  84
HETATM   84  O4  BDP C   5      21.019  12.667  45.360  1.00 33.34    -0.348 OA
BRANCH  84  85
HETATM   85  C1  NGY C   6      22.207  13.245  45.949  1.00 35.33     0.286 C 
HETATM   86  C2  NGY C   6      23.008  13.889  44.866  1.00 39.33     0.170 C 
HETATM   87  C3  NGY C   6      23.510  12.824  43.955  1.00 39.13     0.177 C 
HETATM   88  C4  NGY C   6      24.347  11.881  44.747  1.00 37.06     0.180 C 
HETATM   89  C5  NGY C   6      23.483  11.308  45.823  1.00 32.98     0.181 C 
HETATM   90  O5  NGY C   6      23.009  12.335  46.612  1.00 32.46    -0.349 OA
BRANCH  86  91
HETATM   91  N2  NGY C   6      22.172  14.781  44.122  1.00 39.90    -0.349 N 
HETATM   92  C7  NGY C   6      22.669  16.050  43.695  1.00 44.73     0.214 C 
HETATM   93  O7  NGY C   6      23.815  16.384  43.963  1.00 46.19    -0.274 OA
HETATM   94  C8  NGY C   6      21.777  16.961  42.920  1.00 43.79     0.117 C 
ATOM     95  H2  NGY C   6      21.216  14.508  43.895  1.00  0.00     0.163 HD
ENDBRANCH  86  91
BRANCH  87  96
HETATM   96  O3  NGY C   6      24.249  13.378  42.933  1.00 44.02    -0.391 OA
ATOM     97  H3  NGY C   6      25.146  13.518  43.213  1.00  0.00     0.210 HD
ENDBRANCH  87  96
BRANCH  88  98
HETATM   98  O4  NGY C   6      24.807  10.877  43.926  1.00 37.39    -0.390 OA
ATOM     99  H4  NGY C   6      25.160  10.172  44.456  1.00  0.00     0.210 HD
ENDBRANCH  88  98
BRANCH  89 100
HETATM  100  C6  NGY C   6      24.228  10.306  46.648  1.00 31.91     0.227 C 
BRANCH 100 101
HETATM  101  O6  NGY C   6      23.943   9.009  46.265  1.00 36.15    -0.254 OA
BRANCH 101 102
HETATM  102  S   NGY C   6      25.008   7.981  46.287  1.00 34.85     0.251 S 
HETATM  103  O7A NGY C   6      24.442   6.674  46.492  1.00 33.41    -0.572 OA
HETATM  104  O8  NGY C   6      25.883   8.347  47.400  1.00 30.21    -0.572 OA
HETATM  105  O9  NGY C   6      25.716   8.008  45.029  1.00 38.01    -0.572 OA
ENDBRANCH 101 102
ENDBRANCH 100 101
ENDBRANCH  89 100
ENDBRANCH  84  85
ENDBRANCH  77  84
BRANCH  78 106
HETATM  106  C6  BDP C   5      20.172  10.117  46.474  1.00 29.31     0.206 C 
HETATM  107  O6A BDP C   5      20.492   9.993  47.682  1.00 32.10    -0.646 OA
HETATM  108  O6B BDP C   5      20.617   9.303  45.623  1.00 26.46    -0.646 OA
ENDBRANCH  78 106
ENDBRANCH  73  74
ENDBRANCH   4  73
TORSDOF 38
ENDMDL
MODEL 13
REMARK VINA RESULT:      -6.7      3.786     17.042
REMARK WARNING: 32 MAX_TORS EXCEEDED!!!
REMARK  38 active torsions:
REMARK  status: ('A' for Active; 'I' for Inactive)
REMARK    1  A    between atoms: C2_2  and  O2_3 
REMARK    2  A    between atoms: C3_5  and  O3_6 
REMARK    3  A    between atoms: C4_8  and  O4_9 
REMARK    4  A    between atoms: O4_9  and  C1_15 
REMARK    5  A    between atoms: C5_10  and  C6_12 
REMARK    6  A    between atoms: S1_17  and  N2_19 
REMARK    7  A    between atoms: C2_18  and  N2_19 
REMARK    8  A    between atoms: S2_22  and  O6_34 
REMARK    9  A    between atoms: C3_23  and  O3_24 
REMARK   10  A    between atoms: C4_27  and  O4_28 
REMARK   11  A    between atoms: O4_28  and  C1_36 
REMARK   12  A    between atoms: C5_30  and  C6_33 
REMARK   13  A    between atoms: C6_33  and  O6_34 
REMARK   14  A    between atoms: C2_38  and  O2_39 
REMARK   15  A    between atoms: O2_39  and  S_52 
REMARK   16  A    between atoms: C3_41  and  O3_42 
REMARK   17  A    between atoms: C4_45  and  O4_46 
REMARK   18  A    between atoms: O4_46  and  C1_53 
REMARK   19  A    between atoms: C5_47  and  C6_49 
REMARK   20  A    between atoms: S1_55  and  N2_57 
REMARK   21  A    between atoms: C2_56  and  N2_57 
REMARK   22  A    between atoms: S2_60  and  O6_72 
REMARK   23  A    between atoms: C3_61  and  O3_62 
REMARK   24  A    between atoms: C4_65  and  O4_66 
REMARK   25  A    between atoms: O4_66  and  C1_74 
REMARK   26  A    between atoms: C5_68  and  C6_71 
REMARK   27  A    between atoms: C6_71  and  O6_72 
REMARK   28  A    between atoms: C2_75  and  O2_76 
REMARK   29  A    between atoms: C3_78  and  O3_79 
REMARK   30  A    between atoms: C4_81  and  O4_82 
REMARK   31  A    between atoms: O4_82  and  C1_88 
REMARK   32  A    between atoms: C5_83  and  C6_85 
REMARK   33  A    between atoms: C2_89  and  N2_90 
REMARK       I    between atoms: N2_90  and  C7_102 
REMARK   34  A    between atoms: C3_92  and  O3_93 
REMARK   35  A    between atoms: C4_95  and  O4_96 
REMARK   36  A    between atoms: C5_98  and  C6_100 
REMARK   37  A    between atoms: C6_100  and  O6_101 
REMARK   38  A    between atoms: O6_101  and  S_108 
ROOT
HETATM    1  C1  SGN C   4      16.558  12.949  46.781  1.00 25.95     0.287 C 
HETATM    2  C2  SGN C   4      15.623  12.358  47.840  1.00 24.33     0.182 C 
HETATM    3  C3  SGN C   4      14.516  11.516  47.211  1.00 24.72     0.178 C 
HETATM    4  C4  SGN C   4      13.777  12.321  46.153  1.00 24.11     0.186 C 
HETATM    5  C5  SGN C   4      14.809  12.927  45.202  1.00 25.01     0.181 C 
HETATM    6  O5  SGN C   4      15.763  13.711  45.893  1.00 24.61    -0.349 OA
ENDROOT
BRANCH   1   7
HETATM    7  O4  IDS C   3      17.329  11.925  46.103  1.00 24.52    -0.348 OA
BRANCH   7   8
HETATM    8  C4  IDS C   3      18.152  12.478  45.118  1.00 32.57     0.195 C 
HETATM    9  C3  IDS C   3      18.670  13.836  45.502  1.00 36.22     0.185 C 
HETATM   10  C2  IDS C   3      19.985  13.834  46.251  1.00 37.49     0.231 C 
HETATM   11  C1  IDS C   3      20.927  12.780  45.753  1.00 32.35     0.294 C 
HETATM   12  O5  IDS C   3      20.275  11.570  45.727  1.00 29.95    -0.340 OA
HETATM   13  C5  IDS C   3      19.291  11.560  44.765  1.00 31.73     0.257 C 
BRANCH   9  14
HETATM   14  O3  IDS C   3      18.850  14.575  44.349  1.00 35.64    -0.390 OA
ATOM     15  H3  IDS C   3      19.781  14.589  44.162  1.00  0.00     0.210 HD
ENDBRANCH   9  14
BRANCH  10  16
HETATM   16  O2  IDS C   3      19.779  13.692  47.612  1.00 41.30    -0.244 OA
BRANCH  16  17
HETATM   17  S   IDS C   3      19.759  14.902  48.454  1.00 46.67     0.252 S 
HETATM   18  O1S IDS C   3      18.400  15.266  48.764  1.00 45.84    -0.572 OA
HETATM   19  O2S IDS C   3      20.508  14.567  49.672  1.00 43.53    -0.572 OA
HETATM   20  O3S IDS C   3      20.399  16.005  47.778  1.00 50.85    -0.572 OA
ENDBRANCH  16  17
ENDBRANCH  10  16
BRANCH  11  21
HETATM   21  O4  SGN C   2      21.510  13.195  44.493  1.00 35.63    -0.348 OA
BRANCH  21  22
HETATM   22  C4  SGN C   2      22.917  12.992  44.429  1.00 34.14     0.186 C 
HETATM   23  C3  SGN C   2      23.191  12.066  43.249  1.00 36.01     0.178 C 
HETATM   24  C2  SGN C   2      24.669  11.988  42.859  1.00 38.29     0.182 C 
HETATM   25  C1  SGN C   2      25.306  13.376  42.790  1.00 40.25     0.287 C 
HETATM   26  O5  SGN C   2      25.051  14.071  43.994  1.00 40.44    -0.349 OA
HETATM   27  C5  SGN C   2      23.664  14.308  44.214  1.00 39.12     0.181 C 
BRANCH  23  28
HETATM   28  O3  SGN C   2      22.716  10.772  43.536  1.00 37.94    -0.391 OA
ATOM     29  H3  SGN C   2      22.852  10.585  44.458  1.00  0.00     0.210 HD
ENDBRANCH  23  28
BRANCH  24  30
HETATM   30  N2  SGN C   2      24.734  11.329  41.568  1.00 38.07    -0.289 N 
ATOM     31  H2  SGN C   2      24.095  11.626  40.830  1.00  0.00     0.175 HD
BRANCH  30  32
HETATM   32  S1  SGN C   2      25.774  10.154  41.262  1.00 51.36     0.205 S 
HETATM   33  O1S SGN C   2      26.986  10.766  40.727  1.00 53.59    -0.578 OA
HETATM   34  O2S SGN C   2      26.047   9.485  42.530  1.00 50.52    -0.578 OA
HETATM   35  O3S SGN C   2      25.114   9.287  40.291  1.00 54.39    -0.578 OA
ENDBRANCH  30  32
ENDBRANCH  24  30
BRANCH  25  36
HETATM   36  O4  BDP C   1      24.802  14.063  41.622  1.00 42.04    -0.348 OA
BRANCH  36  37
HETATM   37  C4  BDP C   1      25.681  15.026  41.149  1.00 48.48     0.195 C 
HETATM   38  C3  BDP C   1      26.553  14.420  40.099  1.00 51.01     0.181 C 
HETATM   39  C2  BDP C   1      27.281  15.455  39.314  1.00 53.01     0.173 C 
HETATM   40  C1  BDP C   1      26.363  16.526  38.839  1.00 54.14     0.203 C 
HETATM   41  O5  BDP C   1      25.716  17.066  39.932  1.00 54.15    -0.370 OA
HETATM   42  C5  BDP C   1      24.878  16.164  40.573  1.00 51.87     0.253 C 
BRANCH  38  43
HETATM   43  O3  BDP C   1      27.491  13.600  40.696  1.00 52.92    -0.390 OA
ATOM     44  H3  BDP C   1      27.027  12.892  41.128  1.00  0.00     0.210 HD
ENDBRANCH  38  43
BRANCH  39  45
HETATM   45  O2  BDP C   1      27.865  14.861  38.212  1.00 53.19    -0.391 OA
ATOM     46  H2  BDP C   1      27.389  14.063  38.015  1.00  0.00     0.210 HD
ENDBRANCH  39  45
BRANCH  42  47
HETATM   47  C6  BDP C   1      24.091  16.894  41.619  1.00 51.57     0.205 C 
HETATM   48  O6A BDP C   1      24.663  17.299  42.664  1.00 52.65    -0.646 OA
HETATM   49  O6B BDP C   1      22.857  17.095  41.456  1.00 51.09    -0.646 OA
ENDBRANCH  42  47
ENDBRANCH  36  37
ENDBRANCH  25  36
BRANCH  27  50
HETATM   50  C6  SGN C   2      23.485  15.274  45.381  1.00 42.92     0.227 C 
BRANCH  50  51
HETATM   51  O6  SGN C   2      23.731  14.615  46.603  1.00 46.75    -0.254 OA
BRANCH  51  52
HETATM   52  S2  SGN C   2      24.185  15.430  47.859  1.00 56.56     0.251 S 
HETATM   53  O4S SGN C   2      25.646  15.470  47.837  1.00 58.52    -0.572 OA
HETATM   54  O5S SGN C   2      23.606  16.765  47.769  1.00 53.95    -0.572 OA
HETATM   55  O6S SGN C   2      23.676  14.730  49.031  1.00 54.13    -0.572 OA
ENDBRANCH  51  52
ENDBRANCH  50  51
ENDBRANCH  27  50
ENDBRANCH  21  22
ENDBRANCH  11  21
BRANCH  13  56
HETATM   56  C6  IDS C   3      18.785  10.159  44.634  1.00 33.29     0.206 C 
HETATM   57  O6A IDS C   3      19.197   9.258  45.409  1.00 34.35    -0.646 OA
HETATM   58  O6B IDS C   3      17.948   9.877  43.734  1.00 34.80    -0.646 OA
ENDBRANCH  13  56
ENDBRANCH   7   8
ENDBRANCH   1   7
BRANCH   2  59
HETATM   59  N2  SGN C   4      16.353  11.559  48.808  1.00 24.47    -0.289 N 
ATOM     60  H2  SGN C   4      16.715  10.635  48.570  1.00  0.00     0.175 HD
BRANCH  59  61
HETATM   61  S1  SGN C   4      16.569  12.187  50.260  1.00 23.01     0.205 S 
HETATM   62  O1S SGN C   4      15.923  13.487  50.295  1.00 23.82    -0.578 OA
HETATM   63  O2S SGN C   4      15.956  11.286  51.232  1.00 21.15    -0.578 OA
HETATM   64  O3S SGN C   4      18.017  12.274  50.430  1.00 24.34    -0.578 OA
ENDBRANCH  59  61
ENDBRANCH   2  59
BRANCH   3  65
HETATM   65  O3  SGN C   4      13.617  11.089  48.215  1.00 24.01    -0.391 OA
ATOM     66  H3  SGN C   4      13.883  11.449  49.053  1.00  0.00     0.210 HD
ENDBRANCH   3  65
BRANCH   5  67
HETATM   67  C6  SGN C   4      14.165  13.806  44.138  1.00 29.42     0.227 C 
BRANCH  67  68
HETATM   68  O6  SGN C   4      14.648  13.467  42.857  1.00 33.38    -0.254 OA
BRANCH  68  69
HETATM   69  S2  SGN C   4      15.789  14.352  42.241  1.00 42.75     0.251 S 
HETATM   70  O4S SGN C   4      15.274  14.945  41.015  1.00 44.95    -0.572 OA
HETATM   71  O5S SGN C   4      16.118  15.340  43.259  1.00 42.87    -0.572 OA
HETATM   72  O6S SGN C   4      16.926  13.474  41.993  1.00 40.27    -0.572 OA
ENDBRANCH  68  69
ENDBRANCH  67  68
ENDBRANCH   5  67
BRANCH   4  73
HETATM   73  O4  SGN C   4      12.929  11.425  45.448  1.00 25.89    -0.348 OA
BRANCH  73  74
HETATM   74  C1  BDP C   5      11.522  11.708  45.599  1.00 28.36     0.292 C 
HETATM   75  C2  BDP C   5      10.714  10.783  44.740  1.00 31.13     0.204 C 
HETATM   76  C3  BDP C   5       9.268  11.130  44.801  1.00 33.85     0.183 C 
HETATM   77  C4  BDP C   5       8.785  11.230  46.209  1.00 31.81     0.195 C 
HETATM   78  C5  BDP C   5       9.761  12.034  47.038  1.00 27.14     0.257 C 
HETATM   79  O5  BDP C   5      11.070  11.564  46.901  1.00 24.75    -0.340 OA
BRANCH  75  80
HETATM   80  O2  BDP C   5      11.124  10.856  43.417  1.00 34.37    -0.388 OA
ATOM     81  H2  BDP C   5      12.073  10.871  43.358  1.00  0.00     0.210 HD
ENDBRANCH  75  80
BRANCH  76  82
HETATM   82  O3  BDP C   5       8.570  10.144  44.129  1.00 34.34    -0.390 OA
ATOM     83  H3  BDP C   5       7.872  10.565  43.640  1.00  0.00     0.210 HD
ENDBRANCH  76  82
BRANCH  77  84
HETATM   84  O4  BDP C   5       7.557  11.891  46.236  1.00 33.34    -0.348 OA
BRANCH  84  85
HETATM   85  C1  NGY C   6       6.415  11.012  46.355  1.00 35.33     0.286 C 
HETATM   86  C2  NGY C   6       5.243  11.666  45.702  1.00 39.33     0.170 C 
HETATM   87  C3  NGY C   6       4.880  12.876  46.489  1.00 39.13     0.177 C 
HETATM   88  C4  NGY C   6       4.547  12.454  47.876  1.00 37.06     0.180 C 
HETATM   89  C5  NGY C   6       5.756  11.784  48.444  1.00 32.98     0.181 C 
HETATM   90  O5  NGY C   6       6.078  10.697  47.658  1.00 32.46    -0.349 OA
BRANCH  86  91
HETATM   91  N2  NGY C   6       5.600  12.065  44.374  1.00 39.90    -0.349 N 
HETATM   92  C7  NGY C   6       5.314  11.215  43.263  1.00 44.73     0.214 C 
HETATM   93  O7  NGY C   6       4.762  10.137  43.438  1.00 46.19    -0.274 OA
HETATM   94  C8  NGY C   6       5.696  11.655  41.889  1.00 43.79     0.117 C 
ATOM     95  H2  NGY C   6       6.061  12.962  44.221  1.00  0.00     0.163 HD
ENDBRANCH  86  91
BRANCH  87  96
HETATM   96  O3  NGY C   6       3.804  13.516  45.912  1.00 44.02    -0.391 OA
ATOM     97  H3  NGY C   6       3.133  12.887  45.677  1.00  0.00     0.210 HD
ENDBRANCH  87  96
BRANCH  88  98
HETATM   98  O4  NGY C   6       4.225  13.562  48.627  1.00 37.39    -0.390 OA
ATOM     99  H4  NGY C   6       3.528  13.341  49.233  1.00  0.00     0.210 HD
ENDBRANCH  88  98
BRANCH  89 100
HETATM  100  C6  NGY C   6       5.533  11.364  49.864  1.00 31.91     0.227 C 
BRANCH 100 101
HETATM  101  O6  NGY C   6       4.218  11.007  50.096  1.00 36.15    -0.254 OA
BRANCH 101 102
HETATM  102  S   NGY C   6       3.837   9.577  50.132  1.00 34.85     0.251 S 
HETATM  103  O7A NGY C   6       2.939   9.268  49.050  1.00 33.41    -0.572 OA
HETATM  104  O8  NGY C   6       3.179   9.380  51.423  1.00 30.21    -0.572 OA
HETATM  105  O9  NGY C   6       5.027   8.768  50.018  1.00 38.01    -0.572 OA
ENDBRANCH 101 102
ENDBRANCH 100 101
ENDBRANCH  89 100
ENDBRANCH  84  85
ENDBRANCH  77  84
BRANCH  78 106
HETATM  106  C6  BDP C   5       9.388  12.092  48.488  1.00 29.31     0.206 C 
HETATM  107  O6A BDP C   5       9.199  13.206  49.038  1.00 32.10    -0.646 OA
HETATM  108  O6B BDP C   5       9.279  11.036  49.164  1.00 26.46    -0.646 OA
ENDBRANCH  78 106
ENDBRANCH  73  74
ENDBRANCH   4  73
TORSDOF 38
ENDMDL
MODEL 14
REMARK VINA RESULT:      -6.7      5.185     14.875
REMARK WARNING: 32 MAX_TORS EXCEEDED!!!
REMARK  38 active torsions:
REMARK  status: ('A' for Active; 'I' for Inactive)
REMARK    1  A    between atoms: C2_2  and  O2_3 
REMARK    2  A    between atoms: C3_5  and  O3_6 
REMARK    3  A    between atoms: C4_8  and  O4_9 
REMARK    4  A    between atoms: O4_9  and  C1_15 
REMARK    5  A    between atoms: C5_10  and  C6_12 
REMARK    6  A    between atoms: S1_17  and  N2_19 
REMARK    7  A    between atoms: C2_18  and  N2_19 
REMARK    8  A    between atoms: S2_22  and  O6_34 
REMARK    9  A    between atoms: C3_23  and  O3_24 
REMARK   10  A    between atoms: C4_27  and  O4_28 
REMARK   11  A    between atoms: O4_28  and  C1_36 
REMARK   12  A    between atoms: C5_30  and  C6_33 
REMARK   13  A    between atoms: C6_33  and  O6_34 
REMARK   14  A    between atoms: C2_38  and  O2_39 
REMARK   15  A    between atoms: O2_39  and  S_52 
REMARK   16  A    between atoms: C3_41  and  O3_42 
REMARK   17  A    between atoms: C4_45  and  O4_46 
REMARK   18  A    between atoms: O4_46  and  C1_53 
REMARK   19  A    between atoms: C5_47  and  C6_49 
REMARK   20  A    between atoms: S1_55  and  N2_57 
REMARK   21  A    between atoms: C2_56  and  N2_57 
REMARK   22  A    between atoms: S2_60  and  O6_72 
REMARK   23  A    between atoms: C3_61  and  O3_62 
REMARK   24  A    between atoms: C4_65  and  O4_66 
REMARK   25  A    between atoms: O4_66  and  C1_74 
REMARK   26  A    between atoms: C5_68  and  C6_71 
REMARK   27  A    between atoms: C6_71  and  O6_72 
REMARK   28  A    between atoms: C2_75  and  O2_76 
REMARK   29  A    between atoms: C3_78  and  O3_79 
REMARK   30  A    between atoms: C4_81  and  O4_82 
REMARK   31  A    between atoms: O4_82  and  C1_88 
REMARK   32  A    between atoms: C5_83  and  C6_85 
REMARK   33  A    between atoms: C2_89  and  N2_90 
REMARK       I    between atoms: N2_90  and  C7_102 
REMARK   34  A    between atoms: C3_92  and  O3_93 
REMARK   35  A    between atoms: C4_95  and  O4_96 
REMARK   36  A    between atoms: C5_98  and  C6_100 
REMARK   37  A    between atoms: C6_100  and  O6_101 
REMARK   38  A    between atoms: O6_101  and  S_108 
ROOT
HETATM    1  C1  SGN C   4      12.776  10.218  46.685  1.00 25.95     0.287 C 
HETATM    2  C2  SGN C   4      12.371   8.958  45.914  1.00 24.33     0.182 C 
HETATM    3  C3  SGN C   4      11.599   9.297  44.643  1.00 24.72     0.178 C 
HETATM    4  C4  SGN C   4      10.416  10.196  44.966  1.00 24.11     0.186 C 
HETATM    5  C5  SGN C   4      10.922  11.372  45.801  1.00 25.01     0.181 C 
HETATM    6  O5  SGN C   4      11.592  10.938  46.970  1.00 24.61    -0.349 OA
ENDROOT
BRANCH   1   7
HETATM    7  O4  IDS C   3      13.752  11.009  45.960  1.00 24.52    -0.348 OA
BRANCH   7   8
HETATM    8  C4  IDS C   3      14.466  11.847  46.821  1.00 32.57     0.195 C 
HETATM    9  C3  IDS C   3      15.676  11.171  47.404  1.00 36.22     0.185 C 
HETATM   10  C2  IDS C   3      16.948  11.325  46.599  1.00 37.49     0.231 C 
HETATM   11  C1  IDS C   3      17.069  12.681  45.973  1.00 32.35     0.294 C 
HETATM   12  O5  IDS C   3      15.913  12.964  45.285  1.00 29.95    -0.340 OA
HETATM   13  C5  IDS C   3      14.855  13.135  46.148  1.00 31.73     0.257 C 
BRANCH   9  14
HETATM   14  O3  IDS C   3      15.910  11.704  48.657  1.00 35.64    -0.390 OA
ATOM     15  H3  IDS C   3      15.163  12.247  48.880  1.00  0.00     0.210 HD
ENDBRANCH   9  14
BRANCH  10  16
HETATM   16  O2  IDS C   3      17.045  10.338  45.635  1.00 41.30    -0.244 OA
BRANCH  16  17
HETATM   17  S   IDS C   3      18.385   9.921  45.182  1.00 46.67     0.252 S 
HETATM   18  O1S IDS C   3      18.370   8.528  44.814  1.00 45.84    -0.572 OA
HETATM   19  O2S IDS C   3      18.711  10.769  44.028  1.00 43.53    -0.572 OA
HETATM   20  O3S IDS C   3      19.362  10.122  46.225  1.00 50.85    -0.572 OA
ENDBRANCH  16  17
ENDBRANCH  10  16
BRANCH  11  21
HETATM   21  O4  SGN C   2      17.447  13.657  46.975  1.00 35.63    -0.348 OA
BRANCH  21  22
HETATM   22  C4  SGN C   2      18.434  14.576  46.524  1.00 34.14     0.186 C 
HETATM   23  C3  SGN C   2      17.775  15.949  46.441  1.00 36.01     0.178 C 
HETATM   24  C2  SGN C   2      18.770  17.098  46.261  1.00 38.29     0.182 C 
HETATM   25  C1  SGN C   2      19.952  16.973  47.224  1.00 40.25     0.287 C 
HETATM   26  O5  SGN C   2      20.518  15.683  47.110  1.00 40.44    -0.349 OA
HETATM   27  C5  SGN C   2      19.616  14.648  47.491  1.00 39.12     0.181 C 
BRANCH  23  28
HETATM   28  O3  SGN C   2      16.845  15.969  45.385  1.00 37.94    -0.391 OA
ATOM     29  H3  SGN C   2      16.251  16.701  45.504  1.00  0.00     0.210 HD
ENDBRANCH  23  28
BRANCH  24  30
HETATM   30  N2  SGN C   2      18.043  18.331  46.500  1.00 38.07    -0.289 N 
ATOM     31  H2  SGN C   2      17.469  18.410  47.340  1.00  0.00     0.175 HD
BRANCH  30  32
HETATM   32  S1  SGN C   2      18.113  19.570  45.492  1.00 51.36     0.205 S 
HETATM   33  O1S SGN C   2      19.070  20.528  46.035  1.00 53.59    -0.578 OA
HETATM   34  O2S SGN C   2      18.572  19.049  44.208  1.00 50.52    -0.578 OA
HETATM   35  O3S SGN C   2      16.758  20.109  45.436  1.00 54.39    -0.578 OA
ENDBRANCH  30  32
ENDBRANCH  24  30
BRANCH  25  36
HETATM   36  O4  BDP C   1      19.499  17.277  48.563  1.00 42.04    -0.348 OA
BRANCH  36  37
HETATM   37  C4  BDP C   1      20.501  17.811  49.357  1.00 48.48     0.195 C 
HETATM   38  C3  BDP C   1      20.316  19.289  49.451  1.00 51.01     0.181 C 
HETATM   39  C2  BDP C   1      21.136  19.886  50.542  1.00 53.01     0.173 C 
HETATM   40  C1  BDP C   1      20.968  19.140  51.820  1.00 54.14     0.203 C 
HETATM   41  O5  BDP C   1      21.284  17.816  51.601  1.00 54.15    -0.370 OA
HETATM   42  C5  BDP C   1      20.412  17.182  50.724  1.00 51.87     0.253 C 
BRANCH  38  43
HETATM   43  O3  BDP C   1      20.699  19.878  48.262  1.00 52.92    -0.390 OA
ATOM     44  H3  BDP C   1      20.093  19.594  47.587  1.00  0.00     0.210 HD
ENDBRANCH  38  43
BRANCH  39  45
HETATM   45  O2  BDP C   1      20.739  21.193  50.745  1.00 53.19    -0.391 OA
ATOM     46  H2  BDP C   1      21.322  21.587  51.384  1.00  0.00     0.210 HD
ENDBRANCH  39  45
BRANCH  42  47
HETATM   47  C6  BDP C   1      20.730  15.717  50.701  1.00 51.57     0.205 C 
HETATM   48  O6A BDP C   1      19.886  14.887  51.129  1.00 52.65    -0.646 OA
HETATM   49  O6B BDP C   1      21.842  15.319  50.262  1.00 51.09    -0.646 OA
ENDBRANCH  42  47
ENDBRANCH  36  37
ENDBRANCH  25  36
BRANCH  27  50
HETATM   50  C6  SGN C   2      20.366  13.323  47.590  1.00 42.92     0.227 C 
BRANCH  50  51
HETATM   51  O6  SGN C   2      21.757  13.543  47.521  1.00 46.75    -0.254 OA
BRANCH  51  52
HETATM   52  S2  SGN C   2      22.601  12.890  46.376  1.00 56.56     0.251 S 
HETATM   53  O4S SGN C   2      23.580  12.012  47.013  1.00 58.52    -0.572 OA
HETATM   54  O5S SGN C   2      21.694  12.149  45.509  1.00 53.95    -0.572 OA
HETATM   55  O6S SGN C   2      23.237  13.975  45.641  1.00 54.13    -0.572 OA
ENDBRANCH  51  52
ENDBRANCH  50  51
ENDBRANCH  27  50
ENDBRANCH  21  22
ENDBRANCH  11  21
BRANCH  13  56
HETATM   56  C6  IDS C   3      13.696  13.662  45.363  1.00 33.29     0.206 C 
HETATM   57  O6A IDS C   3      13.564  13.366  44.147  1.00 34.35    -0.646 OA
HETATM   58  O6B IDS C   3      12.853  14.414  45.920  1.00 34.80    -0.646 OA
ENDBRANCH  13  56
ENDBRANCH   7   8
ENDBRANCH   1   7
BRANCH   2  59
HETATM   59  N2  SGN C   4      13.527   8.144  45.581  1.00 24.47    -0.289 N 
ATOM     60  H2  SGN C   4      14.236   8.472  44.925  1.00  0.00     0.175 HD
BRANCH  59  61
HETATM   61  S1  SGN C   4      13.643   6.716  46.286  1.00 23.01     0.205 S 
HETATM   62  O1S SGN C   4      13.800   6.924  47.714  1.00 23.82    -0.578 OA
HETATM   63  O2S SGN C   4      12.414   5.980  46.009  1.00 21.15    -0.578 OA
HETATM   64  O3S SGN C   4      14.812   6.083  45.679  1.00 24.34    -0.578 OA
ENDBRANCH  59  61
ENDBRANCH   2  59
BRANCH   3  65
HETATM   65  O3  SGN C   4      11.150   8.103  44.030  1.00 24.01    -0.391 OA
ATOM     66  H3  SGN C   4      10.776   7.529  44.688  1.00  0.00     0.210 HD
ENDBRANCH   3  65
BRANCH   5  67
HETATM   67  C6  SGN C   4       9.793  12.302  46.229  1.00 29.42     0.227 C 
BRANCH  67  68
HETATM   68  O6  SGN C   4       9.768  13.455  45.417  1.00 33.38    -0.254 OA
BRANCH  68  69
HETATM   69  S2  SGN C   4       8.735  14.583  45.770  1.00 42.75     0.251 S 
HETATM   70  O4S SGN C   4       9.411  15.865  45.610  1.00 44.95    -0.572 OA
HETATM   71  O5S SGN C   4       7.623  14.405  44.848  1.00 42.87    -0.572 OA
HETATM   72  O6S SGN C   4       8.304  14.356  47.144  1.00 40.27    -0.572 OA
ENDBRANCH  68  69
ENDBRANCH  67  68
ENDBRANCH   5  67
BRANCH   4  73
HETATM   73  O4  SGN C   4       9.883  10.663  43.736  1.00 25.89    -0.348 OA
BRANCH  73  74
HETATM   74  C1  BDP C   5       8.441  10.725  43.706  1.00 28.36     0.292 C 
HETATM   75  C2  BDP C   5       7.984  11.555  42.545  1.00 31.13     0.204 C 
HETATM   76  C3  BDP C   5       6.504  11.719  42.561  1.00 33.85     0.183 C 
HETATM   77  C4  BDP C   5       5.807  10.405  42.682  1.00 31.81     0.195 C 
HETATM   78  C5  BDP C   5       6.458   9.568  43.761  1.00 27.14     0.257 C 
HETATM   79  O5  BDP C   5       7.841   9.481  43.588  1.00 24.75    -0.340 OA
BRANCH  75  80
HETATM   80  O2  BDP C   5       8.562  12.816  42.584  1.00 34.37    -0.388 OA
ATOM     81  H2  BDP C   5       8.366  13.251  43.406  1.00  0.00     0.210 HD
ENDBRANCH  75  80
BRANCH  76  82
HETATM   82  O3  BDP C   5       6.137  12.344  41.384  1.00 34.34    -0.390 OA
ATOM     83  H3  BDP C   5       6.895  12.348  40.810  1.00  0.00     0.210 HD
ENDBRANCH  76  82
BRANCH  77  84
HETATM   84  O4  BDP C   5       4.477  10.614  43.049  1.00 33.34    -0.348 OA
BRANCH  84  85
HETATM   85  C1  NGY C   6       3.561  10.686  41.932  1.00 35.33     0.286 C 
HETATM   86  C2  NGY C   6       2.394  11.527  42.330  1.00 39.33     0.170 C 
HETATM   87  C3  NGY C   6       1.642  10.814  43.399  1.00 39.13     0.177 C 
HETATM   88  C4  NGY C   6       1.192   9.501  42.863  1.00 37.06     0.180 C 
HETATM   89  C5  NGY C   6       2.412   8.738  42.461  1.00 32.98     0.181 C 
HETATM   90  O5  NGY C   6       3.096   9.457  41.503  1.00 32.46    -0.349 OA
BRANCH  86  91
HETATM   91  N2  NGY C   6       2.862  12.777  42.847  1.00 39.90    -0.349 N 
HETATM   92  C7  NGY C   6       3.011  13.906  41.984  1.00 44.73     0.214 C 
HETATM   93  O7  NGY C   6       2.740  13.811  40.795  1.00 46.19    -0.274 OA
HETATM   94  C8  NGY C   6       3.501  15.197  42.548  1.00 43.79     0.117 C 
ATOM     95  H2  NGY C   6       3.090  12.863  43.837  1.00  0.00     0.163 HD
ENDBRANCH  86  91
BRANCH  87  96
HETATM   96  O3  NGY C   6       0.557  11.563  43.802  1.00 44.02    -0.391 OA
ATOM     97  H3  NGY C   6       0.800  12.477  43.886  1.00  0.00     0.210 HD
ENDBRANCH  87  96
BRANCH  88  98
HETATM   98  O4  NGY C   6       0.509   8.816  43.842  1.00 37.39    -0.390 OA
ATOM     99  H4  NGY C   6      -0.393   8.694  43.572  1.00  0.00     0.210 HD
ENDBRANCH  88  98
BRANCH  89 100
HETATM  100  C6  NGY C   6       2.062   7.375  41.951  1.00 31.91     0.227 C 
BRANCH 100 101
HETATM  101  O6  NGY C   6       2.170   6.412  42.936  1.00 36.15    -0.254 OA
BRANCH 101 102
HETATM  102  S   NGY C   6       0.962   5.696  43.405  1.00 34.85     0.251 S 
HETATM  103  O7A NGY C   6       1.094   4.281  43.172  1.00 33.41    -0.572 OA
HETATM  104  O8  NGY C   6      -0.146   6.247  42.626  1.00 30.21    -0.572 OA
HETATM  105  O9  NGY C   6       0.787   5.939  44.817  1.00 38.01    -0.572 OA
ENDBRANCH 101 102
ENDBRANCH 100 101
ENDBRANCH  89 100
ENDBRANCH  84  85
ENDBRANCH  77  84
BRANCH  78 106
HETATM  106  C6  BDP C   5       5.868   8.194  43.870  1.00 29.31     0.206 C 
HETATM  107  O6A BDP C   5       5.965   7.398  42.903  1.00 32.10    -0.646 OA
HETATM  108  O6B BDP C   5       5.261   7.839  44.913  1.00 26.46    -0.646 OA
ENDBRANCH  78 106
ENDBRANCH  73  74
ENDBRANCH   4  73
TORSDOF 38
ENDMDL
MODEL 15
REMARK VINA RESULT:      -6.7      3.543      6.243
REMARK WARNING: 32 MAX_TORS EXCEEDED!!!
REMARK  38 active torsions:
REMARK  status: ('A' for Active; 'I' for Inactive)
REMARK    1  A    between atoms: C2_2  and  O2_3 
REMARK    2  A    between atoms: C3_5  and  O3_6 
REMARK    3  A    between atoms: C4_8  and  O4_9 
REMARK    4  A    between atoms: O4_9  and  C1_15 
REMARK    5  A    between atoms: C5_10  and  C6_12 
REMARK    6  A    between atoms: S1_17  and  N2_19 
REMARK    7  A    between atoms: C2_18  and  N2_19 
REMARK    8  A    between atoms: S2_22  and  O6_34 
REMARK    9  A    between atoms: C3_23  and  O3_24 
REMARK   10  A    between atoms: C4_27  and  O4_28 
REMARK   11  A    between atoms: O4_28  and  C1_36 
REMARK   12  A    between atoms: C5_30  and  C6_33 
REMARK   13  A    between atoms: C6_33  and  O6_34 
REMARK   14  A    between atoms: C2_38  and  O2_39 
REMARK   15  A    between atoms: O2_39  and  S_52 
REMARK   16  A    between atoms: C3_41  and  O3_42 
REMARK   17  A    between atoms: C4_45  and  O4_46 
REMARK   18  A    between atoms: O4_46  and  C1_53 
REMARK   19  A    between atoms: C5_47  and  C6_49 
REMARK   20  A    between atoms: S1_55  and  N2_57 
REMARK   21  A    between atoms: C2_56  and  N2_57 
REMARK   22  A    between atoms: S2_60  and  O6_72 
REMARK   23  A    between atoms: C3_61  and  O3_62 
REMARK   24  A    between atoms: C4_65  and  O4_66 
REMARK   25  A    between atoms: O4_66  and  C1_74 
REMARK   26  A    between atoms: C5_68  and  C6_71 
REMARK   27  A    between atoms: C6_71  and  O6_72 
REMARK   28  A    between atoms: C2_75  and  O2_76 
REMARK   29  A    between atoms: C3_78  and  O3_79 
REMARK   30  A    between atoms: C4_81  and  O4_82 
REMARK   31  A    between atoms: O4_82  and  C1_88 
REMARK   32  A    between atoms: C5_83  and  C6_85 
REMARK   33  A    between atoms: C2_89  and  N2_90 
REMARK       I    between atoms: N2_90  and  C7_102 
REMARK   34  A    between atoms: C3_92  and  O3_93 
REMARK   35  A    between atoms: C4_95  and  O4_96 
REMARK   36  A    between atoms: C5_98  and  C6_100 
REMARK   37  A    between atoms: C6_100  and  O6_101 
REMARK   38  A    between atoms: O6_101  and  S_108 
ROOT
HETATM    1  C1  SGN C   4       5.858  12.488  44.982  1.00 25.95     0.287 C 
HETATM    2  C2  SGN C   4       6.979  11.917  44.107  1.00 24.33     0.182 C 
HETATM    3  C3  SGN C   4       8.025  11.180  44.939  1.00 24.72     0.178 C 
HETATM    4  C4  SGN C   4       8.543  12.076  46.053  1.00 24.11     0.186 C 
HETATM    5  C5  SGN C   4       7.342  12.650  46.805  1.00 25.01     0.181 C 
HETATM    6  O5  SGN C   4       6.459  13.338  45.939  1.00 24.61    -0.349 OA
ENDROOT
BRANCH   1   7
HETATM    7  O4  IDS C   3       5.056  11.442  45.588  1.00 24.52    -0.348 OA
BRANCH   7   8
HETATM    8  C4  IDS C   3       4.327  11.930  46.676  1.00 32.57     0.195 C 
HETATM    9  C3  IDS C   3       3.076  12.647  46.251  1.00 36.22     0.185 C 
HETATM   10  C2  IDS C   3       1.844  11.776  46.132  1.00 37.49     0.231 C 
HETATM   11  C1  IDS C   3       1.785  10.719  47.193  1.00 32.35     0.294 C 
HETATM   12  O5  IDS C   3       2.977  10.035  47.214  1.00 29.95    -0.340 OA
HETATM   13  C5  IDS C   3       4.000  10.839  47.660  1.00 31.73     0.257 C 
BRANCH   9  14
HETATM   14  O3  IDS C   3       2.801  13.630  47.183  1.00 35.64    -0.390 OA
ATOM     15  H3  IDS C   3       2.768  13.213  48.036  1.00  0.00     0.210 HD
ENDBRANCH   9  14
BRANCH  10  16
HETATM   16  O2  IDS C   3       1.764  11.203  44.875  1.00 41.30    -0.244 OA
BRANCH  16  17
HETATM   17  S   IDS C   3       1.009  11.908  43.823  1.00 46.67     0.252 S 
HETATM   18  O1S IDS C   3       0.261  10.962  43.035  1.00 45.84    -0.572 OA
HETATM   19  O2S IDS C   3       0.114  12.843  44.518  1.00 43.53    -0.572 OA
HETATM   20  O3S IDS C   3       1.901  12.641  42.958  1.00 50.85    -0.572 OA
ENDBRANCH  16  17
ENDBRANCH  10  16
BRANCH  11  21
HETATM   21  O4  SGN C   2       1.389  11.309  48.456  1.00 35.63    -0.348 OA
BRANCH  21  22
HETATM   22  C4  SGN C   2       0.643  10.424  49.282  1.00 34.14     0.186 C 
HETATM   23  C3  SGN C   2       1.610   9.818  50.294  1.00 36.01     0.178 C 
HETATM   24  C2  SGN C   2       0.917   9.078  51.440  1.00 38.29     0.182 C 
HETATM   25  C1  SGN C   2      -0.240   9.894  52.018  1.00 40.25     0.287 C 
HETATM   26  O5  SGN C   2      -1.101  10.295  50.972  1.00 40.44    -0.349 OA
HETATM   27  C5  SGN C   2      -0.467  11.159  50.033  1.00 39.12     0.181 C 
BRANCH  23  28
HETATM   28  O3  SGN C   2       2.496   8.941  49.641  1.00 37.94    -0.391 OA
ATOM     29  H3  SGN C   2       3.361   9.024  50.026  1.00  0.00     0.210 HD
ENDBRANCH  23  28
BRANCH  24  30
HETATM   30  N2  SGN C   2       1.925   8.829  52.455  1.00 38.07    -0.289 N 
ATOM     31  H2  SGN C   2       1.962   9.437  53.273  1.00  0.00     0.175 HD
BRANCH  30  32
HETATM   32  S1  SGN C   2       2.977   7.631  52.334  1.00 51.36     0.205 S 
HETATM   33  O1S SGN C   2       2.345   6.563  51.566  1.00 53.59    -0.578 OA
HETATM   34  O2S SGN C   2       4.142   8.157  51.629  1.00 50.52    -0.578 OA
HETATM   35  O3S SGN C   2       3.275   7.229  53.705  1.00 54.39    -0.578 OA
ENDBRANCH  30  32
ENDBRANCH  24  30
BRANCH  25  36
HETATM   36  O4  BDP C   1       0.301  11.009  52.765  1.00 42.04    -0.348 OA
BRANCH  36  37
HETATM   37  C4  BDP C   1      -0.550  11.440  53.771  1.00 48.48     0.195 C 
HETATM   38  C3  BDP C   1      -0.041  10.949  55.085  1.00 51.01     0.181 C 
HETATM   39  C2  BDP C   1      -0.697  11.640  56.230  1.00 53.01     0.173 C 
HETATM   40  C1  BDP C   1      -0.683  13.119  56.054  1.00 54.14     0.203 C 
HETATM   41  O5  BDP C   1      -1.287  13.423  54.851  1.00 54.15    -0.370 OA
HETATM   42  C5  BDP C   1      -0.587  12.946  53.751  1.00 51.87     0.253 C 
BRANCH  38  43
HETATM   43  O3  BDP C   1      -0.297   9.596  55.203  1.00 52.92    -0.390 OA
ATOM     44  H3  BDP C   1      -0.330   9.385  56.129  1.00  0.00     0.210 HD
ENDBRANCH  38  43
BRANCH  39  45
HETATM   45  O2  BDP C   1      -0.019  11.335  57.394  1.00 53.19    -0.391 OA
ATOM     46  H2  BDP C   1       0.526  10.573  57.233  1.00  0.00     0.210 HD
ENDBRANCH  39  45
BRANCH  42  47
HETATM   47  C6  BDP C   1      -1.220  13.486  52.504  1.00 51.57     0.205 C 
HETATM   48  O6A BDP C   1      -0.554  14.223  51.732  1.00 52.65    -0.646 OA
HETATM   49  O6B BDP C   1      -2.420  13.209  52.234  1.00 51.09    -0.646 OA
ENDBRANCH  42  47
ENDBRANCH  36  37
ENDBRANCH  25  36
BRANCH  27  50
HETATM   50  C6  SGN C   2      -1.511  11.750  49.091  1.00 42.92     0.227 C 
BRANCH  50  51
HETATM   51  O6  SGN C   2      -2.137  10.726  48.350  1.00 46.75    -0.254 OA
BRANCH  51  52
HETATM   52  S2  SGN C   2      -2.464  10.939  46.835  1.00 56.56     0.251 S 
HETATM   53  O4S SGN C   2      -2.453  12.381  46.593  1.00 58.52    -0.572 OA
HETATM   54  O5S SGN C   2      -1.447  10.251  46.049  1.00 53.95    -0.572 OA
HETATM   55  O6S SGN C   2      -3.777  10.355  46.594  1.00 54.13    -0.572 OA
ENDBRANCH  51  52
ENDBRANCH  50  51
ENDBRANCH  27  50
ENDBRANCH  21  22
ENDBRANCH  11  21
BRANCH  13  56
HETATM   56  C6  IDS C   3       5.206   9.980  47.876  1.00 33.29     0.206 C 
HETATM   57  O6A IDS C   3       5.290   8.852  47.325  1.00 34.35    -0.646 OA
HETATM   58  O6B IDS C   3       6.137  10.384  48.623  1.00 34.80    -0.646 OA
ENDBRANCH  13  56
ENDBRANCH   7   8
ENDBRANCH   1   7
BRANCH   2  59
HETATM   59  N2  SGN C   4       6.455  11.031  43.084  1.00 24.47    -0.289 N 
ATOM     60  H2  SGN C   4       6.256  10.050  43.281  1.00  0.00     0.175 HD
BRANCH  59  61
HETATM   61  S1  SGN C   4       6.204  11.655  41.635  1.00 23.01     0.205 S 
HETATM   62  O1S SGN C   4       7.494  11.934  41.029  1.00 23.82    -0.578 OA
HETATM   63  O2S SGN C   4       5.472  10.671  40.845  1.00 21.15    -0.578 OA
HETATM   64  O3S SGN C   4       5.421  12.866  41.869  1.00 24.34    -0.578 OA
ENDBRANCH  59  61
ENDBRANCH   2  59
BRANCH   3  65
HETATM   65  O3  SGN C   4       9.092  10.773  44.104  1.00 24.01    -0.391 OA
ATOM     66  H3  SGN C   4       9.613  10.118  44.553  1.00  0.00     0.210 HD
ENDBRANCH   3  65
BRANCH   5  67
HETATM   67  C6  SGN C   4       7.761  13.615  47.907  1.00 29.42     0.227 C 
BRANCH  67  68
HETATM   68  O6  SGN C   4       6.737  13.743  48.868  1.00 33.38    -0.254 OA
BRANCH  68  69
HETATM   69  S2  SGN C   4       7.153  13.981  50.363  1.00 42.75     0.251 S 
HETATM   70  O4S SGN C   4       8.413  14.711  50.359  1.00 44.95    -0.572 OA
HETATM   71  O5S SGN C   4       6.060  14.732  50.963  1.00 42.87    -0.572 OA
HETATM   72  O6S SGN C   4       7.277  12.670  50.988  1.00 40.27    -0.572 OA
ENDBRANCH  68  69
ENDBRANCH  67  68
ENDBRANCH   5  67
BRANCH   4  73
HETATM   73  O4  SGN C   4       9.326  11.271  46.922  1.00 25.89    -0.348 OA
BRANCH  73  74
HETATM   74  C1  BDP C   5      10.624  11.823  47.225  1.00 28.36     0.292 C 
HETATM   75  C2  BDP C   5      10.908  11.699  48.692  1.00 31.13     0.204 C 
HETATM   76  C3  BDP C   5      12.196  12.360  49.039  1.00 33.85     0.183 C 
HETATM   77  C4  BDP C   5      13.309  11.893  48.162  1.00 31.81     0.195 C 
HETATM   78  C5  BDP C   5      12.863  11.884  46.717  1.00 27.14     0.257 C 
HETATM   79  O5  BDP C   5      11.658  11.197  46.549  1.00 24.75    -0.340 OA
BRANCH  75  80
HETATM   80  O2  BDP C   5       9.900  12.289  49.440  1.00 34.37    -0.388 OA
ATOM     81  H2  BDP C   5       9.797  13.204  49.205  1.00  0.00     0.210 HD
ENDBRANCH  75  80
BRANCH  76  82
HETATM   82  O3  BDP C   5      12.478  12.064  50.360  1.00 34.34    -0.390 OA
ATOM     83  H3  BDP C   5      13.423  12.017  50.451  1.00  0.00     0.210 HD
ENDBRANCH  76  82
BRANCH  77  84
HETATM   84  O4  BDP C   5      14.388  12.770  48.269  1.00 33.34    -0.348 OA
BRANCH  84  85
HETATM   85  C1  NGY C   6      15.387  12.361  49.232  1.00 35.33     0.286 C 
HETATM   86  C2  NGY C   6      16.246  13.539  49.553  1.00 39.33     0.170 C 
HETATM   87  C3  NGY C   6      17.016  13.908  48.333  1.00 39.13     0.177 C 
HETATM   88  C4  NGY C   6      17.845  12.740  47.928  1.00 37.06     0.180 C 
HETATM   89  C5  NGY C   6      16.917  11.602  47.657  1.00 32.98     0.181 C 
HETATM   90  O5  NGY C   6      16.197  11.327  48.801  1.00 32.46    -0.349 OA
BRANCH  86  91
HETATM   91  N2  NGY C   6      15.417  14.643  49.930  1.00 39.90    -0.349 N 
HETATM   92  C7  NGY C   6      15.064  14.848  51.299  1.00 44.73     0.214 C 
HETATM   93  O7  NGY C   6      15.468  14.078  52.160  1.00 46.19    -0.274 OA
HETATM   94  C8  NGY C   6      14.199  16.007  51.665  1.00 43.79     0.117 C 
ATOM     95  H2  NGY C   6      15.077  15.288  49.217  1.00  0.00     0.163 HD
ENDBRANCH  86  91
BRANCH  87  96
HETATM   96  O3  NGY C   6      17.817  15.000  48.585  1.00 44.02    -0.391 OA
ATOM     97  H3  NGY C   6      17.330  15.804  48.454  1.00  0.00     0.210 HD
ENDBRANCH  87  96
BRANCH  88  98
HETATM   98  O4  NGY C   6      18.552  13.053  46.790  1.00 37.39    -0.390 OA
ATOM     99  H4  NGY C   6      19.213  13.704  46.997  1.00  0.00     0.210 HD
ENDBRANCH  88  98
BRANCH  89 100
HETATM  100  C6  NGY C   6      17.659  10.387  47.194  1.00 31.91     0.227 C 
BRANCH 100 101
HETATM  101  O6  NGY C   6      17.405  10.103  45.865  1.00 36.15    -0.254 OA
BRANCH 101 102
HETATM  102  S   NGY C   6      18.530   9.871  44.931  1.00 34.85     0.251 S 
HETATM  103  O7A NGY C   6      19.717  10.539  45.398  1.00 33.41    -0.572 OA
HETATM  104  O8  NGY C   6      18.096  10.423  43.649  1.00 30.21    -0.572 OA
HETATM  105  O9  NGY C   6      18.780   8.452  44.837  1.00 38.01    -0.572 OA
ENDBRANCH 101 102
ENDBRANCH 100 101
ENDBRANCH  89 100
ENDBRANCH  84  85
ENDBRANCH  77  84
BRANCH  78 106
HETATM  106  C6  BDP C   5      13.901  11.331  45.788  1.00 29.31     0.206 C 
HETATM  107  O6A BDP C   5      14.504  12.102  45.000  1.00 32.10    -0.646 OA
HETATM  108  O6B BDP C   5      14.161  10.100  45.778  1.00 26.46    -0.646 OA
ENDBRANCH  78 106
ENDBRANCH  73  74
ENDBRANCH   4  73
TORSDOF 38
ENDMDL
MODEL 16
REMARK VINA RESULT:      -6.6      4.228      8.817
REMARK WARNING: 32 MAX_TORS EXCEEDED!!!
REMARK  38 active torsions:
REMARK  status: ('A' for Active; 'I' for Inactive)
REMARK    1  A    between atoms: C2_2  and  O2_3 
REMARK    2  A    between atoms: C3_5  and  O3_6 
REMARK    3  A    between atoms: C4_8  and  O4_9 
REMARK    4  A    between atoms: O4_9  and  C1_15 
REMARK    5  A    between atoms: C5_10  and  C6_12 
REMARK    6  A    between atoms: S1_17  and  N2_19 
REMARK    7  A    between atoms: C2_18  and  N2_19 
REMARK    8  A    between atoms: S2_22  and  O6_34 
REMARK    9  A    between atoms: C3_23  and  O3_24 
REMARK   10  A    between atoms: C4_27  and  O4_28 
REMARK   11  A    between atoms: O4_28  and  C1_36 
REMARK   12  A    between atoms: C5_30  and  C6_33 
REMARK   13  A    between atoms: C6_33  and  O6_34 
REMARK   14  A    between atoms: C2_38  and  O2_39 
REMARK   15  A    between atoms: O2_39  and  S_52 
REMARK   16  A    between atoms: C3_41  and  O3_42 
REMARK   17  A    between atoms: C4_45  and  O4_46 
REMARK   18  A    between atoms: O4_46  and  C1_53 
REMARK   19  A    between atoms: C5_47  and  C6_49 
REMARK   20  A    between atoms: S1_55  and  N2_57 
REMARK   21  A    between atoms: C2_56  and  N2_57 
REMARK   22  A    between atoms: S2_60  and  O6_72 
REMARK   23  A    between atoms: C3_61  and  O3_62 
REMARK   24  A    between atoms: C4_65  and  O4_66 
REMARK   25  A    between atoms: O4_66  and  C1_74 
REMARK   26  A    between atoms: C5_68  and  C6_71 
REMARK   27  A    between atoms: C6_71  and  O6_72 
REMARK   28  A    between atoms: C2_75  and  O2_76 
REMARK   29  A    between atoms: C3_78  and  O3_79 
REMARK   30  A    between atoms: C4_81  and  O4_82 
REMARK   31  A    between atoms: O4_82  and  C1_88 
REMARK   32  A    between atoms: C5_83  and  C6_85 
REMARK   33  A    between atoms: C2_89  and  N2_90 
REMARK       I    between atoms: N2_90  and  C7_102 
REMARK   34  A    between atoms: C3_92  and  O3_93 
REMARK   35  A    between atoms: C4_95  and  O4_96 
REMARK   36  A    between atoms: C5_98  and  C6_100 
REMARK   37  A    between atoms: C6_100  and  O6_101 
REMARK   38  A    between atoms: O6_101  and  S_108 
ROOT
HETATM    1  C1  SGN C   4      17.649  12.191  49.738  1.00 25.95     0.287 C 
HETATM    2  C2  SGN C   4      18.634  13.250  50.241  1.00 24.33     0.182 C 
HETATM    3  C3  SGN C   4      19.323  13.974  49.087  1.00 24.72     0.178 C 
HETATM    4  C4  SGN C   4      19.965  12.972  48.142  1.00 24.11     0.186 C 
HETATM    5  C5  SGN C   4      18.917  11.922  47.771  1.00 25.01     0.181 C 
HETATM    6  O5  SGN C   4      18.373  11.295  48.917  1.00 24.61    -0.349 OA
ENDROOT
BRANCH   1   7
HETATM    7  O4  IDS C   3      16.514  12.784  49.055  1.00 24.52    -0.348 OA
BRANCH   7   8
HETATM    8  C4  IDS C   3      15.311  12.221  49.489  1.00 32.57     0.195 C 
HETATM    9  C3  IDS C   3      14.682  13.007  50.606  1.00 36.22     0.185 C 
HETATM   10  C2  IDS C   3      13.728  14.096  50.166  1.00 37.49     0.231 C 
HETATM   11  C1  IDS C   3      12.916  13.699  48.972  1.00 32.35     0.294 C 
HETATM   12  O5  IDS C   3      13.758  13.238  47.988  1.00 29.95    -0.340 OA
HETATM   13  C5  IDS C   3      14.338  12.046  48.355  1.00 31.73     0.257 C 
BRANCH   9  14
HETATM   14  O3  IDS C   3      13.973  12.133  51.407  1.00 35.64    -0.390 OA
ATOM     15  H3  IDS C   3      13.562  11.493  50.837  1.00  0.00     0.210 HD
ENDBRANCH   9  14
BRANCH  10  16
HETATM   16  O2  IDS C   3      14.407  15.276  49.918  1.00 41.30    -0.244 OA
BRANCH  16  17
HETATM   17  S   IDS C   3      14.445  16.306  50.973  1.00 46.67     0.252 S 
HETATM   18  O1S IDS C   3      14.028  15.738  52.231  1.00 45.84    -0.572 OA
HETATM   19  O2S IDS C   3      15.835  16.774  51.040  1.00 43.53    -0.572 OA
HETATM   20  O3S IDS C   3      13.575  17.409  50.643  1.00 50.85    -0.572 OA
ENDBRANCH  16  17
ENDBRANCH  10  16
BRANCH  11  21
HETATM   21  O4  SGN C   2      11.868  12.781  49.370  1.00 35.63    -0.348 OA
BRANCH  21  22
HETATM   22  C4  SGN C   2      10.610  13.065  48.769  1.00 34.14     0.186 C 
HETATM   23  C3  SGN C   2       9.580  12.138  49.406  1.00 36.01     0.178 C 
HETATM   24  C2  SGN C   2       8.132  12.519  49.090  1.00 38.29     0.182 C 
HETATM   25  C1  SGN C   2       7.893  14.018  49.271  1.00 40.25     0.287 C 
HETATM   26  O5  SGN C   2       8.864  14.741  48.540  1.00 40.44    -0.349 OA
HETATM   27  C5  SGN C   2      10.190  14.515  49.009  1.00 39.12     0.181 C 
BRANCH  23  28
HETATM   28  O3  SGN C   2       9.813  10.812  48.995  1.00 37.94    -0.391 OA
ATOM     29  H3  SGN C   2      10.523  10.799  48.363  1.00  0.00     0.210 HD
ENDBRANCH  23  28
BRANCH  24  30
HETATM   30  N2  SGN C   2       7.286  11.754  49.987  1.00 38.07    -0.289 N 
ATOM     31  H2  SGN C   2       7.658  11.471  50.894  1.00  0.00     0.175 HD
BRANCH  30  32
HETATM   32  S1  SGN C   2       5.790  11.340  49.602  1.00 51.36     0.205 S 
HETATM   33  O1S SGN C   2       5.387  12.153  48.460  1.00 53.59    -0.578 OA
HETATM   34  O2S SGN C   2       5.817   9.924  49.248  1.00 50.52    -0.578 OA
HETATM   35  O3S SGN C   2       4.988  11.614  50.790  1.00 54.39    -0.578 OA
ENDBRANCH  30  32
ENDBRANCH  24  30
BRANCH  25  36
HETATM   36  O4  BDP C   1       7.903  14.326  50.684  1.00 42.04    -0.348 OA
BRANCH  36  37
HETATM   37  C4  BDP C   1       7.156  15.453  50.990  1.00 48.48     0.195 C 
HETATM   38  C3  BDP C   1       5.822  15.030  51.510  1.00 51.01     0.181 C 
HETATM   39  C2  BDP C   1       5.099  16.153  52.169  1.00 53.01     0.173 C 
HETATM   40  C1  BDP C   1       5.969  16.862  53.148  1.00 54.14     0.203 C 
HETATM   41  O5  BDP C   1       7.105  17.291  52.494  1.00 54.15    -0.370 OA
HETATM   42  C5  BDP C   1       7.898  16.249  52.032  1.00 51.87     0.253 C 
BRANCH  38  43
HETATM   43  O3  BDP C   1       5.042  14.577  50.464  1.00 52.92    -0.390 OA
ATOM     44  H3  BDP C   1       5.623  14.260  49.782  1.00  0.00     0.210 HD
ENDBRANCH  38  43
BRANCH  39  45
HETATM   45  O2  BDP C   1       4.002  15.653  52.843  1.00 53.19    -0.391 OA
ATOM     46  H2  BDP C   1       4.012  15.998  53.728  1.00  0.00     0.210 HD
ENDBRANCH  39  45
BRANCH  42  47
HETATM   47  C6  BDP C   1       9.185  16.815  51.510  1.00 51.57     0.205 C 
HETATM   48  O6A BDP C   1      10.282  16.383  51.948  1.00 52.65    -0.646 OA
HETATM   49  O6B BDP C   1       9.166  17.727  50.640  1.00 51.09    -0.646 OA
ENDBRANCH  42  47
ENDBRANCH  36  37
ENDBRANCH  25  36
BRANCH  27  50
HETATM   50  C6  SGN C   2      11.143  15.511  48.354  1.00 42.92     0.227 C 
BRANCH  50  51
HETATM   51  O6  SGN C   2      11.052  15.423  46.949  1.00 46.75    -0.254 OA
BRANCH  51  52
HETATM   52  S2  SGN C   2      10.869  16.717  46.090  1.00 56.56     0.251 S 
HETATM   53  O4S SGN C   2      10.320  17.743  46.974  1.00 58.52    -0.572 OA
HETATM   54  O5S SGN C   2      12.172  17.101  45.561  1.00 53.95    -0.572 OA
HETATM   55  O6S SGN C   2       9.956  16.385  45.005  1.00 54.13    -0.572 OA
ENDBRANCH  51  52
ENDBRANCH  50  51
ENDBRANCH  27  50
ENDBRANCH  21  22
ENDBRANCH  11  21
BRANCH  13  56
HETATM   56  C6  IDS C   3      15.051  11.490  47.163  1.00 33.29     0.206 C 
HETATM   57  O6A IDS C   3      15.320  12.230  46.181  1.00 34.35    -0.646 OA
HETATM   58  O6B IDS C   3      15.374  10.273  47.138  1.00 34.80    -0.646 OA
ENDBRANCH  13  56
ENDBRANCH   7   8
ENDBRANCH   1   7
BRANCH   2  59
HETATM   59  N2  SGN C   4      17.980  14.217  51.104  1.00 24.47    -0.289 N 
ATOM     60  H2  SGN C   4      17.200  14.784  50.771  1.00  0.00     0.175 HD
BRANCH  59  61
HETATM   61  S1  SGN C   4      18.533  14.357  52.596  1.00 23.01     0.205 S 
HETATM   62  O1S SGN C   4      17.540  15.064  53.385  1.00 23.82    -0.578 OA
HETATM   63  O2S SGN C   4      18.741  13.013  53.123  1.00 21.15    -0.578 OA
HETATM   64  O3S SGN C   4      19.785  15.100  52.473  1.00 24.34    -0.578 OA
ENDBRANCH  59  61
ENDBRANCH   2  59
BRANCH   3  65
HETATM   65  O3  SGN C   4      20.302  14.857  49.600  1.00 24.01    -0.391 OA
ATOM     66  H3  SGN C   4      20.072  15.751  49.377  1.00  0.00     0.210 HD
ENDBRANCH   3  65
BRANCH   5  67
HETATM   67  C6  SGN C   4      19.487  10.834  46.870  1.00 29.42     0.227 C 
BRANCH  67  68
HETATM   68  O6  SGN C   4      18.493   9.886  46.549  1.00 33.38    -0.254 OA
BRANCH  68  69
HETATM   69  S2  SGN C   4      18.246   9.559  45.034  1.00 42.75     0.251 S 
HETATM   70  O4S SGN C   4      16.814   9.661  44.788  1.00 44.95    -0.572 OA
HETATM   71  O5S SGN C   4      19.025  10.535  44.286  1.00 42.87    -0.572 OA
HETATM   72  O6S SGN C   4      18.751   8.211  44.799  1.00 40.27    -0.572 OA
ENDBRANCH  68  69
ENDBRANCH  67  68
ENDBRANCH   5  67
BRANCH   4  73
HETATM   73  O4  SGN C   4      20.380  13.680  46.983  1.00 25.89    -0.348 OA
BRANCH  73  74
HETATM   74  C1  BDP C   5      19.294  14.265  46.233  1.00 28.36     0.292 C 
HETATM   75  C2  BDP C   5      19.582  15.708  45.948  1.00 31.13     0.204 C 
HETATM   76  C3  BDP C   5      18.426  16.355  45.269  1.00 33.85     0.183 C 
HETATM   77  C4  BDP C   5      17.982  15.576  44.076  1.00 31.81     0.195 C 
HETATM   78  C5  BDP C   5      17.895  14.106  44.418  1.00 27.14     0.257 C 
HETATM   79  O5  BDP C   5      19.069  13.640  45.017  1.00 24.75    -0.340 OA
BRANCH  75  80
HETATM   80  O2  BDP C   5      19.839  16.399  47.123  1.00 34.37    -0.388 OA
ATOM     81  H2  BDP C   5      20.632  16.079  47.536  1.00  0.00     0.210 HD
ENDBRANCH  75  80
BRANCH  76  82
HETATM   82  O3  BDP C   5      18.818  17.624  44.888  1.00 34.34    -0.390 OA
ATOM     83  H3  BDP C   5      18.687  18.204  45.630  1.00  0.00     0.210 HD
ENDBRANCH  76  82
BRANCH  77  84
HETATM   84  O4  BDP C   5      16.711  15.999  43.688  1.00 33.34    -0.348 OA
BRANCH  84  85
HETATM   85  C1  NGY C   6      16.693  17.290  43.035  1.00 35.33     0.286 C 
HETATM   86  C2  NGY C   6      15.328  17.877  43.184  1.00 39.33     0.170 C 
HETATM   87  C3  NGY C   6      14.369  17.041  42.411  1.00 39.13     0.177 C 
HETATM   88  C4  NGY C   6      14.792  17.035  40.984  1.00 37.06     0.180 C 
HETATM   89  C5  NGY C   6      16.171  16.465  40.927  1.00 32.98     0.181 C 
HETATM   90  O5  NGY C   6      17.012  17.248  41.691  1.00 32.46    -0.349 OA
BRANCH  86  91
HETATM   91  N2  NGY C   6      14.951  17.860  44.565  1.00 39.90    -0.349 N 
HETATM   92  C7  NGY C   6      15.501  18.812  45.476  1.00 44.73     0.214 C 
HETATM   93  O7  NGY C   6      16.301  19.650  45.082  1.00 46.19    -0.274 OA
HETATM   94  C8  NGY C   6      15.091  18.773  46.910  1.00 43.79     0.117 C 
ATOM     95  H2  NGY C   6      14.285  17.164  44.900  1.00  0.00     0.163 HD
ENDBRANCH  86  91
BRANCH  87  96
HETATM   96  O3  NGY C   6      13.091  17.545  42.530  1.00 44.02    -0.391 OA
ATOM     97  H3  NGY C   6      12.507  17.108  41.922  1.00  0.00     0.210 HD
ENDBRANCH  87  96
BRANCH  88  98
HETATM   98  O4  NGY C   6      13.927  16.252  40.254  1.00 37.39    -0.390 OA
ATOM     99  H4  NGY C   6      13.534  15.601  40.822  1.00  0.00     0.210 HD
ENDBRANCH  88  98
BRANCH  89 100
HETATM  100  C6  NGY C   6      16.668  16.374  39.517  1.00 31.91     0.227 C 
BRANCH 100 101
HETATM  101  O6  NGY C   6      17.961  16.847  39.394  1.00 36.15    -0.254 OA
BRANCH 101 102
HETATM  102  S   NGY C   6      18.418  17.421  38.109  1.00 34.85     0.251 S 
HETATM  103  O7A NGY C   6      18.775  16.372  37.189  1.00 33.41    -0.572 OA
HETATM  104  O8  NGY C   6      19.583  18.240  38.438  1.00 30.21    -0.572 OA
HETATM  105  O9  NGY C   6      17.355  18.218  37.543  1.00 38.01    -0.572 OA
ENDBRANCH 101 102
ENDBRANCH 100 101
ENDBRANCH  89 100
ENDBRANCH  84  85
ENDBRANCH  77  84
BRANCH  78 106
HETATM  106  C6  BDP C   5      17.549  13.250  43.237  1.00 29.31     0.206 C 
HETATM  107  O6A BDP C   5      18.388  13.094  42.315  1.00 32.10    -0.646 OA
HETATM  108  O6B BDP C   5      16.419  12.703  43.151  1.00 26.46    -0.646 OA
ENDBRANCH  78 106
ENDBRANCH  73  74
ENDBRANCH   4  73
TORSDOF 38
ENDMDL
MODEL 17
REMARK VINA RESULT:      -6.6      1.904      3.626
REMARK WARNING: 32 MAX_TORS EXCEEDED!!!
REMARK  38 active torsions:
REMARK  status: ('A' for Active; 'I' for Inactive)
REMARK    1  A    between atoms: C2_2  and  O2_3 
REMARK    2  A    between atoms: C3_5  and  O3_6 
REMARK    3  A    between atoms: C4_8  and  O4_9 
REMARK    4  A    between atoms: O4_9  and  C1_15 
REMARK    5  A    between atoms: C5_10  and  C6_12 
REMARK    6  A    between atoms: S1_17  and  N2_19 
REMARK    7  A    between atoms: C2_18  and  N2_19 
REMARK    8  A    between atoms: S2_22  and  O6_34 
REMARK    9  A    between atoms: C3_23  and  O3_24 
REMARK   10  A    between atoms: C4_27  and  O4_28 
REMARK   11  A    between atoms: O4_28  and  C1_36 
REMARK   12  A    between atoms: C5_30  and  C6_33 
REMARK   13  A    between atoms: C6_33  and  O6_34 
REMARK   14  A    between atoms: C2_38  and  O2_39 
REMARK   15  A    between atoms: O2_39  and  S_52 
REMARK   16  A    between atoms: C3_41  and  O3_42 
REMARK   17  A    between atoms: C4_45  and  O4_46 
REMARK   18  A    between atoms: O4_46  and  C1_53 
REMARK   19  A    between atoms: C5_47  and  C6_49 
REMARK   20  A    between atoms: S1_55  and  N2_57 
REMARK   21  A    between atoms: C2_56  and  N2_57 
REMARK   22  A    between atoms: S2_60  and  O6_72 
REMARK   23  A    between atoms: C3_61  and  O3_62 
REMARK   24  A    between atoms: C4_65  and  O4_66 
REMARK   25  A    between atoms: O4_66  and  C1_74 
REMARK   26  A    between atoms: C5_68  and  C6_71 
REMARK   27  A    between atoms: C6_71  and  O6_72 
REMARK   28  A    between atoms: C2_75  and  O2_76 
REMARK   29  A    between atoms: C3_78  and  O3_79 
REMARK   30  A    between atoms: C4_81  and  O4_82 
REMARK   31  A    between atoms: O4_82  and  C1_88 
REMARK   32  A    between atoms: C5_83  and  C6_85 
REMARK   33  A    between atoms: C2_89  and  N2_90 
REMARK       I    between atoms: N2_90  and  C7_102 
REMARK   34  A    between atoms: C3_92  and  O3_93 
REMARK   35  A    between atoms: C4_95  and  O4_96 
REMARK   36  A    between atoms: C5_98  and  C6_100 
REMARK   37  A    between atoms: C6_100  and  O6_101 
REMARK   38  A    between atoms: O6_101  and  S_108 
ROOT
HETATM    1  C1  SGN C   4      11.055  10.992  45.535  1.00 25.95     0.287 C 
HETATM    2  C2  SGN C   4      11.687   9.676  45.070  1.00 24.33     0.182 C 
HETATM    3  C3  SGN C   4      12.768   9.197  46.034  1.00 24.72     0.178 C 
HETATM    4  C4  SGN C   4      13.794  10.295  46.266  1.00 24.11     0.186 C 
HETATM    5  C5  SGN C   4      13.049  11.576  46.645  1.00 25.01     0.181 C 
HETATM    6  O5  SGN C   4      12.097  11.940  45.663  1.00 24.61    -0.349 OA
ENDROOT
BRANCH   1   7
HETATM    7  O4  IDS C   3      10.294  10.827  46.758  1.00 24.52    -0.348 OA
BRANCH   7   8
HETATM    8  C4  IDS C   3       9.620  12.003  47.098  1.00 32.57     0.195 C 
HETATM    9  C3  IDS C   3       8.445  12.270  46.199  1.00 36.22     0.185 C 
HETATM   10  C2  IDS C   3       7.133  11.677  46.663  1.00 37.49     0.231 C 
HETATM   11  C1  IDS C   3       6.972  11.735  48.151  1.00 32.35     0.294 C 
HETATM   12  O5  IDS C   3       8.090  11.199  48.746  1.00 29.95    -0.340 OA
HETATM   13  C5  IDS C   3       9.189  12.001  48.540  1.00 31.73     0.257 C 
BRANCH   9  14
HETATM   14  O3  IDS C   3       8.272  13.638  46.104  1.00 35.64    -0.390 OA
ATOM     15  H3  IDS C   3       9.114  14.044  46.269  1.00  0.00     0.210 HD
ENDBRANCH   9  14
BRANCH  10  16
HETATM   16  O2  IDS C   3       6.993  10.376  46.213  1.00 41.30    -0.244 OA
BRANCH  16  17
HETATM   17  S   IDS C   3       5.708   9.970  45.613  1.00 46.67     0.252 S 
HETATM   18  O1S IDS C   3       4.671  10.893  45.997  1.00 45.84    -0.572 OA
HETATM   19  O2S IDS C   3       5.913   9.980  44.158  1.00 43.53    -0.572 OA
HETATM   20  O3S IDS C   3       5.340   8.643  46.043  1.00 50.85    -0.572 OA
ENDBRANCH  16  17
ENDBRANCH  10  16
BRANCH  11  21
HETATM   21  O4  SGN C   2       6.640  13.085  48.560  1.00 35.63    -0.348 OA
BRANCH  21  22
HETATM   22  C4  SGN C   2       6.127  13.163  49.885  1.00 34.14     0.186 C 
HETATM   23  C3  SGN C   2       6.625  14.470  50.491  1.00 36.01     0.178 C 
HETATM   24  C2  SGN C   2       5.923  14.849  51.797  1.00 38.29     0.182 C 
HETATM   25  C1  SGN C   2       4.406  14.692  51.685  1.00 40.25     0.287 C 
HETATM   26  O5  SGN C   2       4.101  13.396  51.208  1.00 40.44    -0.349 OA
HETATM   27  C5  SGN C   2       4.599  13.159  49.894  1.00 39.12     0.181 C 
BRANCH  23  28
HETATM   28  O3  SGN C   2       8.013  14.396  50.713  1.00 37.94    -0.391 OA
ATOM     29  H3  SGN C   2       8.450  15.067  50.200  1.00  0.00     0.210 HD
ENDBRANCH  23  28
BRANCH  24  30
HETATM   30  N2  SGN C   2       6.274  16.228  52.084  1.00 38.07    -0.289 N 
ATOM     31  H2  SGN C   2       5.886  16.968  51.498  1.00  0.00     0.175 HD
BRANCH  30  32
HETATM   32  S1  SGN C   2       7.249  16.626  53.287  1.00 51.36     0.205 S 
HETATM   33  O1S SGN C   2       7.150  15.580  54.300  1.00 53.59    -0.578 OA
HETATM   34  O2S SGN C   2       8.600  16.690  52.738  1.00 50.52    -0.578 OA
HETATM   35  O3S SGN C   2       6.770  17.916  53.772  1.00 54.39    -0.578 OA
ENDBRANCH  30  32
ENDBRANCH  24  30
BRANCH  25  36
HETATM   36  O4  BDP C   1       3.887  15.743  50.838  1.00 42.04    -0.348 OA
BRANCH  36  37
HETATM   37  C4  BDP C   1       2.579  16.081  51.149  1.00 48.48     0.195 C 
HETATM   38  C3  BDP C   1       2.551  16.759  52.478  1.00 51.01     0.181 C 
HETATM   39  C2  BDP C   1       1.253  17.446  52.727  1.00 53.01     0.173 C 
HETATM   40  C1  BDP C   1       0.856  18.295  51.570  1.00 54.14     0.203 C 
HETATM   41  O5  BDP C   1       0.815  17.506  50.439  1.00 54.15    -0.370 OA
HETATM   42  C5  BDP C   1       2.058  17.004  50.077  1.00 51.87     0.253 C 
BRANCH  38  43
HETATM   43  O3  BDP C   1       2.735  15.823  53.477  1.00 52.92    -0.390 OA
ATOM     44  H3  BDP C   1       1.939  15.308  53.545  1.00  0.00     0.210 HD
ENDBRANCH  38  43
BRANCH  39  45
HETATM   45  O2  BDP C   1       1.373  18.255  53.840  1.00 53.19    -0.391 OA
ATOM     46  H2  BDP C   1       1.794  17.755  54.529  1.00  0.00     0.210 HD
ENDBRANCH  39  45
BRANCH  42  47
HETATM   47  C6  BDP C   1       1.936  16.323  48.747  1.00 51.57     0.205 C 
HETATM   48  O6A BDP C   1       1.032  16.675  47.945  1.00 52.65    -0.646 OA
HETATM   49  O6B BDP C   1       2.730  15.396  48.437  1.00 51.09    -0.646 OA
ENDBRANCH  42  47
ENDBRANCH  36  37
ENDBRANCH  25  36
BRANCH  27  50
HETATM   50  C6  SGN C   2       4.019  11.856  49.352  1.00 42.92     0.227 C 
BRANCH  50  51
HETATM   51  O6  SGN C   2       4.039  10.859  50.350  1.00 46.75    -0.254 OA
BRANCH  51  52
HETATM   52  S2  SGN C   2       3.947   9.349  49.954  1.00 56.56     0.251 S 
HETATM   53  O4S SGN C   2       5.276   8.945  49.497  1.00 58.52    -0.572 OA
HETATM   54  O5S SGN C   2       3.527   8.595  51.129  1.00 53.95    -0.572 OA
HETATM   55  O6S SGN C   2       2.951   9.243  48.897  1.00 54.13    -0.572 OA
ENDBRANCH  51  52
ENDBRANCH  50  51
ENDBRANCH  27  50
ENDBRANCH  21  22
ENDBRANCH  11  21
BRANCH  13  56
HETATM   56  C6  IDS C   3      10.304  11.489  49.396  1.00 33.29     0.206 C 
HETATM   57  O6A IDS C   3      11.401  12.104  49.448  1.00 34.35    -0.646 OA
HETATM   58  O6B IDS C   3      10.147  10.430  50.061  1.00 34.80    -0.646 OA
ENDBRANCH  13  56
ENDBRANCH   7   8
ENDBRANCH   1   7
BRANCH   2  59
HETATM   59  N2  SGN C   4      10.687   8.637  44.901  1.00 24.47    -0.289 N 
ATOM     60  H2  SGN C   4      10.644   7.834  45.529  1.00  0.00     0.175 HD
BRANCH  59  61
HETATM   61  S1  SGN C   4       9.656   8.804  43.693  1.00 23.01     0.205 S 
HETATM   62  O1S SGN C   4       8.486   7.991  43.977  1.00 23.82    -0.578 OA
HETATM   63  O2S SGN C   4       9.290  10.214  43.609  1.00 21.15    -0.578 OA
HETATM   64  O3S SGN C   4      10.378   8.352  42.506  1.00 24.34    -0.578 OA
ENDBRANCH  59  61
ENDBRANCH   2  59
BRANCH   3  65
HETATM   65  O3  SGN C   4      13.398   8.046  45.504  1.00 24.01    -0.391 OA
ATOM     66  H3  SGN C   4      13.938   7.644  46.174  1.00  0.00     0.210 HD
ENDBRANCH   3  65
BRANCH   5  67
HETATM   67  C6  SGN C   4      13.995  12.755  46.838  1.00 29.42     0.227 C 
BRANCH  67  68
HETATM   68  O6  SGN C   4      13.358  13.784  47.562  1.00 33.38    -0.254 OA
BRANCH  68  69
HETATM   69  S2  SGN C   4      12.988  15.104  46.797  1.00 42.75     0.251 S 
HETATM   70  O4S SGN C   4      13.653  15.064  45.501  1.00 44.95    -0.572 OA
HETATM   71  O5S SGN C   4      11.536  15.109  46.694  1.00 42.87    -0.572 OA
HETATM   72  O6S SGN C   4      13.447  16.219  47.617  1.00 40.27    -0.572 OA
ENDBRANCH  68  69
ENDBRANCH  67  68
ENDBRANCH   5  67
BRANCH   4  73
HETATM   73  O4  SGN C   4      14.631   9.881  47.336  1.00 25.89    -0.348 OA
BRANCH  73  74
HETATM   74  C1  BDP C   5      16.035  10.129  47.114  1.00 28.36     0.292 C 
HETATM   75  C2  BDP C   5      16.423   9.698  45.732  1.00 31.13     0.204 C 
HETATM   76  C3  BDP C   5      17.889   9.848  45.523  1.00 33.85     0.183 C 
HETATM   77  C4  BDP C   5      18.361  11.215  45.888  1.00 31.81     0.195 C 
HETATM   78  C5  BDP C   5      17.770  11.631  47.217  1.00 27.14     0.257 C 
HETATM   79  O5  BDP C   5      16.383  11.464  47.244  1.00 24.75    -0.340 OA
BRANCH  75  80
HETATM   80  O2  BDP C   5      16.086   8.370  45.518  1.00 34.37    -0.388 OA
ATOM     81  H2  BDP C   5      15.658   8.003  46.283  1.00  0.00     0.210 HD
ENDBRANCH  75  80
BRANCH  76  82
HETATM   82  O3  BDP C   5      18.152   9.597  44.189  1.00 34.34    -0.390 OA
ATOM     83  H3  BDP C   5      17.324   9.410  43.761  1.00  0.00     0.210 HD
ENDBRANCH  76  82
BRANCH  77  84
HETATM   84  O4  BDP C   5      19.749  11.211  46.023  1.00 33.34    -0.348 OA
BRANCH  84  85
HETATM   85  C1  NGY C   6      20.463  11.442  44.785  1.00 35.33     0.286 C 
HETATM   86  C2  NGY C   6      21.918  11.566  45.094  1.00 39.33     0.170 C 
HETATM   87  C3  NGY C   6      22.126  12.804  45.894  1.00 39.13     0.177 C 
HETATM   88  C4  NGY C   6      21.650  13.967  45.095  1.00 37.06     0.180 C 
HETATM   89  C5  NGY C   6      20.201  13.750  44.805  1.00 32.98     0.181 C 
HETATM   90  O5  NGY C   6      20.056  12.572  44.101  1.00 32.46    -0.349 OA
BRANCH  86  91
HETATM   91  N2  NGY C   6      22.339  10.437  45.867  1.00 39.90    -0.349 N 
HETATM   92  C7  NGY C   6      23.298   9.519  45.342  1.00 44.73     0.214 C 
HETATM   93  O7  NGY C   6      23.767   9.691  44.225  1.00 46.19    -0.274 OA
HETATM   94  C8  NGY C   6      23.720   8.350  46.169  1.00 43.79     0.117 C 
ATOM     95  H2  NGY C   6      21.951  10.288  46.798  1.00  0.00     0.163 HD
ENDBRANCH  86  91
BRANCH  87  96
HETATM   96  O3  NGY C   6      23.460  12.952  46.208  1.00 44.02    -0.391 OA
ATOM     97  H3  NGY C   6      23.558  13.215  47.115  1.00  0.00     0.210 HD
ENDBRANCH  87  96
BRANCH  88  98
HETATM   98  O4  NGY C   6      21.817  15.122  45.825  1.00 37.39    -0.390 OA
ATOM     99  H4  NGY C   6      21.071  15.693  45.688  1.00  0.00     0.210 HD
ENDBRANCH  88  98
BRANCH  89 100
HETATM  100  C6  NGY C   6      19.618  14.898  44.042  1.00 31.91     0.227 C 
BRANCH 100 101
HETATM  101  O6  NGY C   6      18.690  15.596  44.791  1.00 36.15    -0.254 OA
BRANCH 101 102
HETATM  102  S   NGY C   6      18.972  16.989  45.206  1.00 34.85     0.251 S 
HETATM  103  O7A NGY C   6      17.931  17.871  44.747  1.00 33.41    -0.572 OA
HETATM  104  O8  NGY C   6      20.251  17.331  44.584  1.00 30.21    -0.572 OA
HETATM  105  O9  NGY C   6      19.054  17.045  46.646  1.00 38.01    -0.572 OA
ENDBRANCH 101 102
ENDBRANCH 100 101
ENDBRANCH  89 100
ENDBRANCH  84  85
ENDBRANCH  77  84
BRANCH  78 106
HETATM  106  C6  BDP C   5      18.124  13.036  47.600  1.00 29.31     0.206 C 
HETATM  107  O6A BDP C   5      19.154  13.253  48.286  1.00 32.10    -0.646 OA
HETATM  108  O6B BDP C   5      17.389  13.998  47.257  1.00 26.46    -0.646 OA
ENDBRANCH  78 106
ENDBRANCH  73  74
ENDBRANCH   4  73
TORSDOF 38
ENDMDL
MODEL 18
REMARK VINA RESULT:      -6.6      3.456      7.365
REMARK WARNING: 32 MAX_TORS EXCEEDED!!!
REMARK  38 active torsions:
REMARK  status: ('A' for Active; 'I' for Inactive)
REMARK    1  A    between atoms: C2_2  and  O2_3 
REMARK    2  A    between atoms: C3_5  and  O3_6 
REMARK    3  A    between atoms: C4_8  and  O4_9 
REMARK    4  A    between atoms: O4_9  and  C1_15 
REMARK    5  A    between atoms: C5_10  and  C6_12 
REMARK    6  A    between atoms: S1_17  and  N2_19 
REMARK    7  A    between atoms: C2_18  and  N2_19 
REMARK    8  A    between atoms: S2_22  and  O6_34 
REMARK    9  A    between atoms: C3_23  and  O3_24 
REMARK   10  A    between atoms: C4_27  and  O4_28 
REMARK   11  A    between atoms: O4_28  and  C1_36 
REMARK   12  A    between atoms: C5_30  and  C6_33 
REMARK   13  A    between atoms: C6_33  and  O6_34 
REMARK   14  A    between atoms: C2_38  and  O2_39 
REMARK   15  A    between atoms: O2_39  and  S_52 
REMARK   16  A    between atoms: C3_41  and  O3_42 
REMARK   17  A    between atoms: C4_45  and  O4_46 
REMARK   18  A    between atoms: O4_46  and  C1_53 
REMARK   19  A    between atoms: C5_47  and  C6_49 
REMARK   20  A    between atoms: S1_55  and  N2_57 
REMARK   21  A    between atoms: C2_56  and  N2_57 
REMARK   22  A    between atoms: S2_60  and  O6_72 
REMARK   23  A    between atoms: C3_61  and  O3_62 
REMARK   24  A    between atoms: C4_65  and  O4_66 
REMARK   25  A    between atoms: O4_66  and  C1_74 
REMARK   26  A    between atoms: C5_68  and  C6_71 
REMARK   27  A    between atoms: C6_71  and  O6_72 
REMARK   28  A    between atoms: C2_75  and  O2_76 
REMARK   29  A    between atoms: C3_78  and  O3_79 
REMARK   30  A    between atoms: C4_81  and  O4_82 
REMARK   31  A    between atoms: O4_82  and  C1_88 
REMARK   32  A    between atoms: C5_83  and  C6_85 
REMARK   33  A    between atoms: C2_89  and  N2_90 
REMARK       I    between atoms: N2_90  and  C7_102 
REMARK   34  A    between atoms: C3_92  and  O3_93 
REMARK   35  A    between atoms: C4_95  and  O4_96 
REMARK   36  A    between atoms: C5_98  and  C6_100 
REMARK   37  A    between atoms: C6_100  and  O6_101 
REMARK   38  A    between atoms: O6_101  and  S_108 
ROOT
HETATM    1  C1  SGN C   4      14.312  11.928  49.087  1.00 25.95     0.287 C 
HETATM    2  C2  SGN C   4      15.519  12.804  49.437  1.00 24.33     0.182 C 
HETATM    3  C3  SGN C   4      16.553  12.815  48.316  1.00 24.72     0.178 C 
HETATM    4  C4  SGN C   4      16.945  11.394  47.943  1.00 24.11     0.186 C 
HETATM    5  C5  SGN C   4      15.666  10.594  47.695  1.00 25.01     0.181 C 
HETATM    6  O5  SGN C   4      14.799  10.629  48.813  1.00 24.61    -0.349 OA
ENDROOT
BRANCH   1   7
HETATM    7  O4  IDS C   3      13.539  12.479  47.990  1.00 24.52    -0.348 OA
BRANCH   7   8
HETATM    8  C4  IDS C   3      12.256  11.929  47.948  1.00 32.57     0.195 C 
HETATM    9  C3  IDS C   3      11.356  12.492  49.014  1.00 36.22     0.185 C 
HETATM   10  C2  IDS C   3      10.574  13.723  48.609  1.00 37.49     0.231 C 
HETATM   11  C1  IDS C   3      10.113  13.667  47.185  1.00 32.35     0.294 C 
HETATM   12  O5  IDS C   3      11.185  13.373  46.376  1.00 29.95    -0.340 OA
HETATM   13  C5  IDS C   3      11.627  12.088  46.590  1.00 31.73     0.257 C 
BRANCH   9  14
HETATM   14  O3  IDS C   3      10.443  11.518  49.370  1.00 35.64    -0.390 OA
ATOM     15  H3  IDS C   3      10.139  11.106  48.571  1.00  0.00     0.210 HD
ENDBRANCH   9  14
BRANCH  10  16
HETATM   16  O2  IDS C   3      11.311  14.872  48.834  1.00 41.30    -0.244 OA
BRANCH  16  17
HETATM   17  S   IDS C   3      10.885  15.787  49.908  1.00 46.67     0.252 S 
HETATM   18  O1S IDS C   3      11.882  15.826  50.948  1.00 45.84    -0.572 OA
HETATM   19  O2S IDS C   3      10.721  17.107  49.283  1.00 43.53    -0.572 OA
HETATM   20  O3S IDS C   3       9.629  15.359  50.476  1.00 50.85    -0.572 OA
ENDBRANCH  16  17
ENDBRANCH  10  16
BRANCH  11  21
HETATM   21  O4  SGN C   2       8.984  12.767  47.066  1.00 35.63    -0.348 OA
BRANCH  21  22
HETATM   22  C4  SGN C   2       7.894  13.323  46.341  1.00 34.14     0.186 C 
HETATM   23  C3  SGN C   2       7.699  12.476  45.088  1.00 36.01     0.178 C 
HETATM   24  C2  SGN C   2       6.385  12.755  44.355  1.00 38.29     0.182 C 
HETATM   25  C1  SGN C   2       5.202  12.810  45.322  1.00 40.25     0.287 C 
HETATM   26  O5  SGN C   2       5.494  13.713  46.371  1.00 40.44    -0.349 OA
HETATM   27  C5  SGN C   2       6.605  13.301  47.162  1.00 39.12     0.181 C 
BRANCH  23  28
HETATM   28  O3  SGN C   2       8.777  12.675  44.205  1.00 37.94    -0.391 OA
ATOM     29  H3  SGN C   2       9.030  11.841  43.825  1.00  0.00     0.210 HD
ENDBRANCH  23  28
BRANCH  24  30
HETATM   30  N2  SGN C   2       6.204  11.690  43.386  1.00 38.07    -0.289 N 
ATOM     31  H2  SGN C   2       6.043  10.740  43.721  1.00  0.00     0.175 HD
BRANCH  30  32
HETATM   32  S1  SGN C   2       6.249  11.956  41.810  1.00 51.36     0.205 S 
HETATM   33  O1S SGN C   2       7.648  11.928  41.397  1.00 53.59    -0.578 OA
HETATM   34  O2S SGN C   2       5.499  10.876  41.174  1.00 50.52    -0.578 OA
HETATM   35  O3S SGN C   2       5.638  13.266  41.613  1.00 54.39    -0.578 OA
ENDBRANCH  30  32
ENDBRANCH  24  30
BRANCH  25  36
HETATM   36  O4  BDP C   1       4.918  11.472  45.790  1.00 42.04    -0.348 OA
BRANCH  36  37
HETATM   37  C4  BDP C   1       3.849  11.431  46.672  1.00 48.48     0.195 C 
HETATM   38  C3  BDP C   1       2.599  11.795  45.942  1.00 51.01     0.181 C 
HETATM   39  C2  BDP C   1       1.377  11.451  46.722  1.00 53.01     0.173 C 
HETATM   40  C1  BDP C   1       1.433  10.053  47.233  1.00 54.14     0.203 C 
HETATM   41  O5  BDP C   1       2.583   9.904  47.980  1.00 54.15    -0.370 OA
HETATM   42  C5  BDP C   1       3.744  10.035  47.230  1.00 51.87     0.253 C 
BRANCH  38  43
HETATM   43  O3  BDP C   1       2.582  13.156  45.705  1.00 52.92    -0.390 OA
ATOM     44  H3  BDP C   1       1.879  13.337  45.092  1.00  0.00     0.210 HD
ENDBRANCH  38  43
BRANCH  39  45
HETATM   45  O2  BDP C   1       0.268  11.572  45.908  1.00 53.19    -0.391 OA
ATOM     46  H2  BDP C   1       0.356  12.370  45.399  1.00  0.00     0.210 HD
ENDBRANCH  39  45
BRANCH  42  47
HETATM   47  C6  BDP C   1       4.918   9.674  48.090  1.00 51.57     0.205 C 
HETATM   48  O6A BDP C   1       5.179  10.359  49.113  1.00 52.65    -0.646 OA
HETATM   49  O6B BDP C   1       5.647   8.693  47.783  1.00 51.09    -0.646 OA
ENDBRANCH  42  47
ENDBRANCH  36  37
ENDBRANCH  25  36
BRANCH  27  50
HETATM   50  C6  SGN C   2       6.698  14.173  48.411  1.00 42.92     0.227 C 
BRANCH  50  51
HETATM   51  O6  SGN C   2       5.854  13.670  49.423  1.00 46.75    -0.254 OA
BRANCH  51  52
HETATM   52  S2  SGN C   2       6.444  13.287  50.820  1.00 56.56     0.251 S 
HETATM   53  O4S SGN C   2       7.649  12.497  50.574  1.00 58.52    -0.572 OA
HETATM   54  O5S SGN C   2       6.742  14.518  51.541  1.00 53.95    -0.572 OA
HETATM   55  O6S SGN C   2       5.422  12.520  51.520  1.00 54.13    -0.572 OA
ENDBRANCH  51  52
ENDBRANCH  50  51
ENDBRANCH  27  50
ENDBRANCH  21  22
ENDBRANCH  11  21
BRANCH  13  56
HETATM   56  C6  IDS C   3      12.630  11.759  45.531  1.00 33.29     0.206 C 
HETATM   57  O6A IDS C   3      13.053  10.582  45.398  1.00 34.35    -0.646 OA
HETATM   58  O6B IDS C   3      13.063  12.670  44.774  1.00 34.80    -0.646 OA
ENDBRANCH  13  56
ENDBRANCH   7   8
ENDBRANCH   1   7
BRANCH   2  59
HETATM   59  N2  SGN C   4      15.116  14.165  49.744  1.00 24.47    -0.289 N 
ATOM     60  H2  SGN C   4      14.576  14.722  49.080  1.00  0.00     0.175 HD
BRANCH  59  61
HETATM   61  S1  SGN C   4      15.553  14.755  51.162  1.00 23.01     0.205 S 
HETATM   62  O1S SGN C   4      15.022  13.888  52.199  1.00 23.82    -0.578 OA
HETATM   63  O2S SGN C   4      17.011  14.774  51.208  1.00 21.15    -0.578 OA
HETATM   64  O3S SGN C   4      14.984  16.100  51.210  1.00 24.34    -0.578 OA
ENDBRANCH  59  61
ENDBRANCH   2  59
BRANCH   3  65
HETATM   65  O3  SGN C   4      17.694  13.541  48.732  1.00 24.01    -0.391 OA
ATOM     66  H3  SGN C   4      18.429  13.328  48.169  1.00  0.00     0.210 HD
ENDBRANCH   3  65
BRANCH   5  67
HETATM   67  C6  SGN C   4      15.955   9.133  47.373  1.00 29.42     0.227 C 
BRANCH  67  68
HETATM   68  O6  SGN C   4      14.889   8.313  47.797  1.00 33.38    -0.254 OA
BRANCH  68  69
HETATM   69  S2  SGN C   4      14.336   7.242  46.792  1.00 42.75     0.251 S 
HETATM   70  O4S SGN C   4      15.023   7.435  45.521  1.00 44.95    -0.572 OA
HETATM   71  O5S SGN C   4      14.612   5.948  47.399  1.00 42.87    -0.572 OA
HETATM   72  O6S SGN C   4      12.899   7.460  46.680  1.00 40.27    -0.572 OA
ENDBRANCH  68  69
ENDBRANCH  67  68
ENDBRANCH   5  67
BRANCH   4  73
HETATM   73  O4  SGN C   4      17.719  11.460  46.755  1.00 25.89    -0.348 OA
BRANCH  73  74
HETATM   74  C1  BDP C   5      19.143  11.369  46.975  1.00 28.36     0.292 C 
HETATM   75  C2  BDP C   5      19.785  10.571  45.881  1.00 31.13     0.204 C 
HETATM   76  C3  BDP C   5      21.236  10.376  46.149  1.00 33.85     0.183 C 
HETATM   77  C4  BDP C   5      21.920  11.669  46.441  1.00 31.81     0.195 C 
HETATM   78  C5  BDP C   5      21.102  12.480  47.421  1.00 27.14     0.257 C 
HETATM   79  O5  BDP C   5      19.772  12.602  47.012  1.00 24.75    -0.340 OA
BRANCH  75  80
HETATM   80  O2  BDP C   5      19.191   9.322  45.769  1.00 34.37    -0.388 OA
ATOM     81  H2  BDP C   5      19.472   8.886  44.973  1.00  0.00     0.210 HD
ENDBRANCH  75  80
BRANCH  76  82
HETATM   82  O3  BDP C   5      21.795   9.786  45.031  1.00 34.34    -0.390 OA
ATOM     83  H3  BDP C   5      21.249  10.005  44.284  1.00  0.00     0.210 HD
ENDBRANCH  76  82
BRANCH  77  84
HETATM   84  O4  BDP C   5      23.161  11.419  47.027  1.00 33.34    -0.348 OA
BRANCH  84  85
HETATM   85  C1  NGY C   6      24.285  11.629  46.140  1.00 35.33     0.286 C 
HETATM   86  C2  NGY C   6      25.399  10.732  46.567  1.00 39.33     0.170 C 
HETATM   87  C3  NGY C   6      25.877  11.177  47.905  1.00 39.13     0.177 C 
HETATM   88  C4  NGY C   6      26.342  12.586  47.795  1.00 37.06     0.180 C 
HETATM   89  C5  NGY C   6      25.182  13.408  47.336  1.00 32.98     0.181 C 
HETATM   90  O5  NGY C   6      24.749  12.931  46.116  1.00 32.46    -0.349 OA
BRANCH  86  91
HETATM   91  N2  NGY C   6      24.916   9.389  46.669  1.00 39.90    -0.349 N 
HETATM   92  C7  NGY C   6      25.380   8.383  45.767  1.00 44.73     0.214 C 
HETATM   93  O7  NGY C   6      26.194   8.664  44.898  1.00 46.19    -0.274 OA
HETATM   94  C8  NGY C   6      24.860   6.990  45.895  1.00 43.79     0.117 C 
ATOM     95  H2  NGY C   6      24.236   9.148  47.390  1.00  0.00     0.163 HD
ENDBRANCH  86  91
BRANCH  87  96
HETATM   96  O3  NGY C   6      26.903  10.366  48.340  1.00 44.02    -0.391 OA
ATOM     97  H3  NGY C   6      26.793   9.485  48.005  1.00  0.00     0.210 HD
ENDBRANCH  87  96
BRANCH  88  98
HETATM   98  O4  NGY C   6      26.771  13.024  49.027  1.00 37.39    -0.390 OA
ATOM     99  H4  NGY C   6      26.266  13.785  49.286  1.00  0.00     0.210 HD
ENDBRANCH  88  98
BRANCH  89 100
HETATM  100  C6  NGY C   6      25.541  14.858  47.241  1.00 31.91     0.227 C 
BRANCH 100 101
HETATM  101  O6  NGY C   6      26.197  15.151  46.060  1.00 36.15    -0.254 OA
BRANCH 101 102
HETATM  102  S   NGY C   6      25.734  16.275  45.217  1.00 34.85     0.251 S 
HETATM  103  O7A NGY C   6      26.687  16.545  44.172  1.00 33.41    -0.572 OA
HETATM  104  O8  NGY C   6      25.618  17.420  46.119  1.00 30.21    -0.572 OA
HETATM  105  O9  NGY C   6      24.460  15.933  44.632  1.00 38.01    -0.572 OA
ENDBRANCH 101 102
ENDBRANCH 100 101
ENDBRANCH  89 100
ENDBRANCH  84  85
ENDBRANCH  77  84
BRANCH  78 106
HETATM  106  C6  BDP C   5      21.684  13.837  47.685  1.00 29.31     0.206 C 
HETATM  107  O6A BDP C   5      21.958  14.177  48.863  1.00 32.10    -0.646 OA
HETATM  108  O6B BDP C   5      21.881  14.643  46.740  1.00 26.46    -0.646 OA
ENDBRANCH  78 106
ENDBRANCH  73  74
ENDBRANCH   4  73
TORSDOF 38
ENDMDL
MODEL 19
REMARK VINA RESULT:      -6.5      7.167     12.927
REMARK WARNING: 32 MAX_TORS EXCEEDED!!!
REMARK  38 active torsions:
REMARK  status: ('A' for Active; 'I' for Inactive)
REMARK    1  A    between atoms: C2_2  and  O2_3 
REMARK    2  A    between atoms: C3_5  and  O3_6 
REMARK    3  A    between atoms: C4_8  and  O4_9 
REMARK    4  A    between atoms: O4_9  and  C1_15 
REMARK    5  A    between atoms: C5_10  and  C6_12 
REMARK    6  A    between atoms: S1_17  and  N2_19 
REMARK    7  A    between atoms: C2_18  and  N2_19 
REMARK    8  A    between atoms: S2_22  and  O6_34 
REMARK    9  A    between atoms: C3_23  and  O3_24 
REMARK   10  A    between atoms: C4_27  and  O4_28 
REMARK   11  A    between atoms: O4_28  and  C1_36 
REMARK   12  A    between atoms: C5_30  and  C6_33 
REMARK   13  A    between atoms: C6_33  and  O6_34 
REMARK   14  A    between atoms: C2_38  and  O2_39 
REMARK   15  A    between atoms: O2_39  and  S_52 
REMARK   16  A    between atoms: C3_41  and  O3_42 
REMARK   17  A    between atoms: C4_45  and  O4_46 
REMARK   18  A    between atoms: O4_46  and  C1_53 
REMARK   19  A    between atoms: C5_47  and  C6_49 
REMARK   20  A    between atoms: S1_55  and  N2_57 
REMARK   21  A    between atoms: C2_56  and  N2_57 
REMARK   22  A    between atoms: S2_60  and  O6_72 
REMARK   23  A    between atoms: C3_61  and  O3_62 
REMARK   24  A    between atoms: C4_65  and  O4_66 
REMARK   25  A    between atoms: O4_66  and  C1_74 
REMARK   26  A    between atoms: C5_68  and  C6_71 
REMARK   27  A    between atoms: C6_71  and  O6_72 
REMARK   28  A    between atoms: C2_75  and  O2_76 
REMARK   29  A    between atoms: C3_78  and  O3_79 
REMARK   30  A    between atoms: C4_81  and  O4_82 
REMARK   31  A    between atoms: O4_82  and  C1_88 
REMARK   32  A    between atoms: C5_83  and  C6_85 
REMARK   33  A    between atoms: C2_89  and  N2_90 
REMARK       I    between atoms: N2_90  and  C7_102 
REMARK   34  A    between atoms: C3_92  and  O3_93 
REMARK   35  A    between atoms: C4_95  and  O4_96 
REMARK   36  A    between atoms: C5_98  and  C6_100 
REMARK   37  A    between atoms: C6_100  and  O6_101 
REMARK   38  A    between atoms: O6_101  and  S_108 
ROOT
HETATM    1  C1  SGN C   4       7.205  10.310  46.641  1.00 25.95     0.287 C 
HETATM    2  C2  SGN C   4       8.416  11.244  46.553  1.00 24.33     0.182 C 
HETATM    3  C3  SGN C   4       8.436  12.022  45.240  1.00 24.72     0.178 C 
HETATM    4  C4  SGN C   4       8.338  11.069  44.059  1.00 24.11     0.186 C 
HETATM    5  C5  SGN C   4       7.149  10.137  44.292  1.00 25.01     0.181 C 
HETATM    6  O5  SGN C   4       7.256   9.446  45.523  1.00 24.61    -0.349 OA
ENDROOT
BRANCH   1   7
HETATM    7  O4  IDS C   3       5.957  11.045  46.725  1.00 24.52    -0.348 OA
BRANCH   7   8
HETATM    8  C4  IDS C   3       5.070  10.434  47.616  1.00 32.57     0.195 C 
HETATM    9  C3  IDS C   3       5.567  10.469  49.034  1.00 36.22     0.185 C 
HETATM   10  C2  IDS C   3       5.145  11.683  49.833  1.00 37.49     0.231 C 
HETATM   11  C1  IDS C   3       3.751  12.125  49.511  1.00 32.35     0.294 C 
HETATM   12  O5  IDS C   3       3.623  12.258  48.149  1.00 29.95    -0.340 OA
HETATM   13  C5  IDS C   3       3.692  11.033  47.526  1.00 31.73     0.257 C 
BRANCH   9  14
HETATM   14  O3  IDS C   3       5.086   9.353  49.690  1.00 35.64    -0.390 OA
ATOM     15  H3  IDS C   3       4.531   9.656  50.399  1.00  0.00     0.210 HD
ENDBRANCH   9  14
BRANCH  10  16
HETATM   16  O2  IDS C   3       6.036  12.727  49.652  1.00 41.30    -0.244 OA
BRANCH  16  17
HETATM   17  S   IDS C   3       6.431  13.530  50.824  1.00 46.67     0.252 S 
HETATM   18  O1S IDS C   3       7.143  12.707  51.768  1.00 45.84    -0.572 OA
HETATM   19  O2S IDS C   3       7.287  14.609  50.313  1.00 43.53    -0.572 OA
HETATM   20  O3S IDS C   3       5.272  14.094  51.471  1.00 50.85    -0.572 OA
ENDBRANCH  16  17
ENDBRANCH  10  16
BRANCH  11  21
HETATM   21  O4  SGN C   2       2.793  11.236  50.138  1.00 35.63    -0.348 OA
BRANCH  21  22
HETATM   22  C4  SGN C   2       1.580  11.881  50.504  1.00 34.14     0.186 C 
HETATM   23  C3  SGN C   2       0.475  11.312  49.620  1.00 36.01     0.178 C 
HETATM   24  C2  SGN C   2      -0.935  11.678  50.087  1.00 38.29     0.182 C 
HETATM   25  C1  SGN C   2      -1.102  11.469  51.592  1.00 40.25     0.287 C 
HETATM   26  O5  SGN C   2      -0.063  12.140  52.278  1.00 40.44    -0.349 OA
HETATM   27  C5  SGN C   2       1.228  11.622  51.969  1.00 39.12     0.181 C 
BRANCH  23  28
HETATM   28  O3  SGN C   2       0.655  11.746  48.293  1.00 37.94    -0.391 OA
ATOM     29  H3  SGN C   2       0.900  12.664  48.293  1.00  0.00     0.210 HD
ENDBRANCH  23  28
BRANCH  24  30
HETATM   30  N2  SGN C   2      -1.859  10.837  49.348  1.00 38.07    -0.289 N 
ATOM     31  H2  SGN C   2      -1.553   9.909  49.053  1.00  0.00     0.175 HD
BRANCH  30  32
HETATM   32  S1  SGN C   2      -3.340  11.315  48.981  1.00 51.36     0.205 S 
HETATM   33  O1S SGN C   2      -3.661  10.784  47.660  1.00 53.59    -0.578 OA
HETATM   34  O2S SGN C   2      -4.231  10.759  49.994  1.00 50.52    -0.578 OA
HETATM   35  O3S SGN C   2      -3.298  12.774  48.998  1.00 54.39    -0.578 OA
ENDBRANCH  30  32
ENDBRANCH  24  30
BRANCH  25  36
HETATM   36  O4  BDP C   1      -1.136  10.049  51.866  1.00 42.04    -0.348 OA
BRANCH  36  37
HETATM   37  C4  BDP C   1      -1.690   9.758  53.103  1.00 48.48     0.195 C 
HETATM   38  C3  BDP C   1      -3.122   9.380  52.921  1.00 51.01     0.181 C 
HETATM   39  C2  BDP C   1      -3.688   8.735  54.139  1.00 53.01     0.173 C 
HETATM   40  C1  BDP C   1      -2.801   7.650  54.643  1.00 54.14     0.203 C 
HETATM   41  O5  BDP C   1      -1.548   8.179  54.872  1.00 54.15    -0.370 OA
HETATM   42  C5  BDP C   1      -0.918   8.617  53.714  1.00 51.87     0.253 C 
BRANCH  38  43
HETATM   43  O3  BDP C   1      -3.868  10.511  52.654  1.00 52.92    -0.390 OA
ATOM     44  H3  BDP C   1      -4.591  10.536  53.270  1.00  0.00     0.210 HD
ENDBRANCH  38  43
BRANCH  39  45
HETATM   45  O2  BDP C   1      -4.917   8.186  53.833  1.00 53.19    -0.391 OA
ATOM     46  H2  BDP C   1      -5.575   8.599  54.380  1.00  0.00     0.210 HD
ENDBRANCH  39  45
BRANCH  42  47
HETATM   47  C6  BDP C   1       0.494   8.995  54.045  1.00 51.57     0.205 C 
HETATM   48  O6A BDP C   1       1.439   8.576  53.327  1.00 52.65    -0.646 OA
HETATM   49  O6B BDP C   1       0.735   9.724  55.045  1.00 51.09    -0.646 OA
ENDBRANCH  42  47
ENDBRANCH  36  37
ENDBRANCH  25  36
BRANCH  27  50
HETATM   50  C6  SGN C   2       2.260  12.211  52.926  1.00 42.92     0.227 C 
BRANCH  50  51
HETATM   51  O6  SGN C   2       2.360  13.606  52.740  1.00 46.75    -0.254 OA
BRANCH  51  52
HETATM   52  S2  SGN C   2       1.982  14.583  53.901  1.00 56.56     0.251 S 
HETATM   53  O4S SGN C   2       3.027  15.603  53.960  1.00 58.52    -0.572 OA
HETATM   54  O5S SGN C   2       0.678  15.163  53.601  1.00 53.95    -0.572 OA
HETATM   55  O6S SGN C   2       1.920  13.793  55.123  1.00 54.13    -0.572 OA
ENDBRANCH  51  52
ENDBRANCH  50  51
ENDBRANCH  27  50
ENDBRANCH  21  22
ENDBRANCH  11  21
BRANCH  13  56
HETATM   56  C6  IDS C   3       3.319  11.222  46.089  1.00 33.29     0.206 C 
HETATM   57  O6A IDS C   3       3.179  10.227  45.332  1.00 34.35    -0.646 OA
HETATM   58  O6B IDS C   3       3.155  12.385  45.633  1.00 34.80    -0.646 OA
ENDBRANCH  13  56
ENDBRANCH   7   8
ENDBRANCH   1   7
BRANCH   2  59
HETATM   59  N2  SGN C   4       8.455  12.171  47.670  1.00 24.47    -0.289 N 
ATOM     60  H2  SGN C   4       7.790  12.941  47.745  1.00  0.00     0.175 HD
BRANCH  59  61
HETATM   61  S1  SGN C   4       9.582  11.935  48.777  1.00 23.01     0.205 S 
HETATM   62  O1S SGN C   4      10.006  13.230  49.279  1.00 23.82    -0.578 OA
HETATM   63  O2S SGN C   4       8.995  11.139  49.850  1.00 21.15    -0.578 OA
HETATM   64  O3S SGN C   4      10.655  11.222  48.087  1.00 24.34    -0.578 OA
ENDBRANCH  59  61
ENDBRANCH   2  59
BRANCH   3  65
HETATM   65  O3  SGN C   4       9.627  12.780  45.157  1.00 24.01    -0.391 OA
ATOM     66  H3  SGN C   4       9.435  13.635  44.789  1.00  0.00     0.210 HD
ENDBRANCH   3  65
BRANCH   5  67
HETATM   67  C6  SGN C   4       7.006   9.100  43.185  1.00 29.42     0.227 C 
BRANCH  67  68
HETATM   68  O6  SGN C   4       5.645   8.877  42.889  1.00 33.38    -0.254 OA
BRANCH  68  69
HETATM   69  S2  SGN C   4       5.096   7.410  42.998  1.00 42.75     0.251 S 
HETATM   70  O4S SGN C   4       4.499   7.067  41.714  1.00 44.95    -0.572 OA
HETATM   71  O5S SGN C   4       6.245   6.581  43.332  1.00 42.87    -0.572 OA
HETATM   72  O6S SGN C   4       4.121   7.396  44.081  1.00 40.27    -0.572 OA
ENDBRANCH  68  69
ENDBRANCH  67  68
ENDBRANCH   5  67
BRANCH   4  73
HETATM   73  O4  SGN C   4       8.126  11.851  42.893  1.00 25.89    -0.348 OA
BRANCH  73  74
HETATM   74  C1  BDP C   5       6.755  12.262  42.704  1.00 28.36     0.292 C 
HETATM   75  C2  BDP C   5       6.674  13.754  42.589  1.00 31.13     0.204 C 
HETATM   76  C3  BDP C   5       5.258  14.203  42.500  1.00 33.85     0.183 C 
HETATM   77  C4  BDP C   5       4.514  13.470  41.435  1.00 31.81     0.195 C 
HETATM   78  C5  BDP C   5       4.803  11.988  41.525  1.00 27.14     0.257 C 
HETATM   79  O5  BDP C   5       6.175  11.727  41.564  1.00 24.75    -0.340 OA
BRANCH  75  80
HETATM   80  O2  BDP C   5       7.256  14.364  43.690  1.00 34.37    -0.388 OA
ATOM     81  H2  BDP C   5       6.952  13.965  44.497  1.00  0.00     0.210 HD
ENDBRANCH  75  80
BRANCH  76  82
HETATM   82  O3  BDP C   5       5.262  15.558  42.228  1.00 34.34    -0.390 OA
ATOM     83  H3  BDP C   5       6.168  15.836  42.155  1.00  0.00     0.210 HD
ENDBRANCH  76  82
BRANCH  77  84
HETATM   84  O4  BDP C   5       3.142  13.647  41.616  1.00 33.34    -0.348 OA
BRANCH  84  85
HETATM   85  C1  NGY C   6       2.532  14.545  40.659  1.00 35.33     0.286 C 
HETATM   86  C2  NGY C   6       1.343  15.181  41.298  1.00 39.33     0.170 C 
HETATM   87  C3  NGY C   6       0.320  14.127  41.542  1.00 39.13     0.177 C 
HETATM   88  C4  NGY C   6      -0.044  13.511  40.237  1.00 37.06     0.180 C 
HETATM   89  C5  NGY C   6       1.202  12.928  39.653  1.00 32.98     0.181 C 
HETATM   90  O5  NGY C   6       2.132  13.933  39.486  1.00 32.46    -0.349 OA
BRANCH  86  91
HETATM   91  N2  NGY C   6       1.726  15.756  42.551  1.00 39.90    -0.349 N 
HETATM   92  C7  NGY C   6       2.433  16.996  42.591  1.00 44.73     0.214 C 
HETATM   93  O7  NGY C   6       2.718  17.576  41.552  1.00 46.19    -0.274 OA
HETATM   94  C8  NGY C   6       2.820  17.574  43.911  1.00 43.79     0.117 C 
ATOM     95  H2  NGY C   6       1.492  15.277  43.421  1.00  0.00     0.163 HD
ENDBRANCH  86  91
BRANCH  87  96
HETATM   96  O3  NGY C   6      -0.796  14.672  42.141  1.00 44.02    -0.391 OA
ATOM     97  H3  NGY C   6      -1.538  14.088  42.050  1.00  0.00     0.210 HD
ENDBRANCH  87  96
BRANCH  88  98
HETATM   98  O4  NGY C   6      -0.976  12.520  40.443  1.00 37.39    -0.390 OA
ATOM     99  H4  NGY C   6      -0.555  11.671  40.379  1.00  0.00     0.210 HD
ENDBRANCH  88  98
BRANCH  89 100
HETATM  100  C6  NGY C   6       0.927  12.239  38.353  1.00 31.91     0.227 C 
BRANCH 100 101
HETATM  101  O6  NGY C   6       1.132  10.875  38.440  1.00 36.15    -0.254 OA
BRANCH 101 102
HETATM  102  S   NGY C   6       0.012   9.942  38.184  1.00 34.85     0.251 S 
HETATM  103  O7A NGY C   6      -0.099   8.983  39.253  1.00 33.41    -0.572 OA
HETATM  104  O8  NGY C   6       0.337   9.276  36.923  1.00 30.21    -0.572 OA
HETATM  105  O9  NGY C   6      -1.216  10.694  38.081  1.00 38.01    -0.572 OA
ENDBRANCH 101 102
ENDBRANCH 100 101
ENDBRANCH  89 100
ENDBRANCH  84  85
ENDBRANCH  77  84
BRANCH  78 106
HETATM  106  C6  BDP C   5       4.164  11.200  40.421  1.00 29.31     0.206 C 
HETATM  107  O6A BDP C   5       3.400  10.243  40.702  1.00 32.10    -0.646 OA
HETATM  108  O6B BDP C   5       4.402  11.476  39.217  1.00 26.46    -0.646 OA
ENDBRANCH  78 106
ENDBRANCH  73  74
ENDBRANCH   4  73
TORSDOF 38
ENDMDL
MODEL 20
REMARK VINA RESULT:      -6.5      4.641      8.321
REMARK WARNING: 32 MAX_TORS EXCEEDED!!!
REMARK  38 active torsions:
REMARK  status: ('A' for Active; 'I' for Inactive)
REMARK    1  A    between atoms: C2_2  and  O2_3 
REMARK    2  A    between atoms: C3_5  and  O3_6 
REMARK    3  A    between atoms: C4_8  and  O4_9 
REMARK    4  A    between atoms: O4_9  and  C1_15 
REMARK    5  A    between atoms: C5_10  and  C6_12 
REMARK    6  A    between atoms: S1_17  and  N2_19 
REMARK    7  A    between atoms: C2_18  and  N2_19 
REMARK    8  A    between atoms: S2_22  and  O6_34 
REMARK    9  A    between atoms: C3_23  and  O3_24 
REMARK   10  A    between atoms: C4_27  and  O4_28 
REMARK   11  A    between atoms: O4_28  and  C1_36 
REMARK   12  A    between atoms: C5_30  and  C6_33 
REMARK   13  A    between atoms: C6_33  and  O6_34 
REMARK   14  A    between atoms: C2_38  and  O2_39 
REMARK   15  A    between atoms: O2_39  and  S_52 
REMARK   16  A    between atoms: C3_41  and  O3_42 
REMARK   17  A    between atoms: C4_45  and  O4_46 
REMARK   18  A    between atoms: O4_46  and  C1_53 
REMARK   19  A    between atoms: C5_47  and  C6_49 
REMARK   20  A    between atoms: S1_55  and  N2_57 
REMARK   21  A    between atoms: C2_56  and  N2_57 
REMARK   22  A    between atoms: S2_60  and  O6_72 
REMARK   23  A    between atoms: C3_61  and  O3_62 
REMARK   24  A    between atoms: C4_65  and  O4_66 
REMARK   25  A    between atoms: O4_66  and  C1_74 
REMARK   26  A    between atoms: C5_68  and  C6_71 
REMARK   27  A    between atoms: C6_71  and  O6_72 
REMARK   28  A    between atoms: C2_75  and  O2_76 
REMARK   29  A    between atoms: C3_78  and  O3_79 
REMARK   30  A    between atoms: C4_81  and  O4_82 
REMARK   31  A    between atoms: O4_82  and  C1_88 
REMARK   32  A    between atoms: C5_83  and  C6_85 
REMARK   33  A    between atoms: C2_89  and  N2_90 
REMARK       I    between atoms: N2_90  and  C7_102 
REMARK   34  A    between atoms: C3_92  and  O3_93 
REMARK   35  A    between atoms: C4_95  and  O4_96 
REMARK   36  A    between atoms: C5_98  and  C6_100 
REMARK   37  A    between atoms: C6_100  and  O6_101 
REMARK   38  A    between atoms: O6_101  and  S_108 
ROOT
HETATM    1  C1  SGN C   4      11.072  11.542  47.127  1.00 25.95     0.287 C 
HETATM    2  C2  SGN C   4      12.272  12.387  47.568  1.00 24.33     0.182 C 
HETATM    3  C3  SGN C   4      13.405  12.333  46.548  1.00 24.72     0.178 C 
HETATM    4  C4  SGN C   4      13.778  10.890  46.248  1.00 24.11     0.186 C 
HETATM    5  C5  SGN C   4      12.500  10.127  45.900  1.00 25.01     0.181 C 
HETATM    6  O5  SGN C   4      11.535  10.221  46.931  1.00 24.61    -0.349 OA
ENDROOT
BRANCH   1   7
HETATM    7  O4  IDS C   3      10.424  12.090  45.951  1.00 24.52    -0.348 OA
BRANCH   7   8
HETATM    8  C4  IDS C   3       9.041  11.900  46.000  1.00 32.57     0.195 C 
HETATM    9  C3  IDS C   3       8.300  13.167  46.324  1.00 36.22     0.185 C 
HETATM   10  C2  IDS C   3       7.895  13.999  45.126  1.00 37.49     0.231 C 
HETATM   11  C1  IDS C   3       7.476  13.157  43.959  1.00 32.35     0.294 C 
HETATM   12  O5  IDS C   3       8.450  12.219  43.708  1.00 29.95    -0.340 OA
HETATM   13  C5  IDS C   3       8.517  11.295  44.725  1.00 31.73     0.257 C 
BRANCH   9  14
HETATM   14  O3  IDS C   3       7.146  12.834  47.006  1.00 35.64    -0.390 OA
ATOM     15  H3  IDS C   3       7.068  13.429  47.743  1.00  0.00     0.210 HD
ENDBRANCH   9  14
BRANCH  10  16
HETATM   16  O2  IDS C   3       8.911  14.863  44.758  1.00 41.30    -0.244 OA
BRANCH  16  17
HETATM   17  S   IDS C   3       8.666  16.315  44.831  1.00 46.67     0.252 S 
HETATM   18  O1S IDS C   3       9.619  17.018  44.010  1.00 45.84    -0.572 OA
HETATM   19  O2S IDS C   3       7.295  16.524  44.347  1.00 43.53    -0.572 OA
HETATM   20  O3S IDS C   3       8.779  16.784  46.191  1.00 50.85    -0.572 OA
ENDBRANCH  16  17
ENDBRANCH  10  16
BRANCH  11  21
HETATM   21  O4  SGN C   2       6.148  12.624  44.185  1.00 35.63    -0.348 OA
BRANCH  21  22
HETATM   22  C4  SGN C   2       5.420  12.394  42.985  1.00 34.14     0.186 C 
HETATM   23  C3  SGN C   2       5.078  10.909  42.936  1.00 36.01     0.178 C 
HETATM   24  C2  SGN C   2       4.044  10.551  41.865  1.00 38.29     0.182 C 
HETATM   25  C1  SGN C   2       2.859  11.517  41.883  1.00 40.25     0.287 C 
HETATM   26  O5  SGN C   2       3.335  12.847  41.820  1.00 40.44    -0.349 OA
HETATM   27  C5  SGN C   2       4.126  13.206  42.950  1.00 39.12     0.181 C 
BRANCH  23  28
HETATM   28  O3  SGN C   2       6.247  10.155  42.725  1.00 37.94    -0.391 OA
ATOM     29  H3  SGN C   2       6.945  10.732  42.434  1.00  0.00     0.210 HD
ENDBRANCH  23  28
BRANCH  24  30
HETATM   30  N2  SGN C   2       3.604   9.195  42.136  1.00 38.07    -0.289 N 
ATOM     31  H2  SGN C   2       3.664   8.838  43.090  1.00  0.00     0.175 HD
BRANCH  30  32
HETATM   32  S1  SGN C   2       3.026   8.242  40.990  1.00 51.36     0.205 S 
HETATM   33  O1S SGN C   2       3.947   7.121  40.841  1.00 53.59    -0.578 OA
HETATM   34  O2S SGN C   2       1.716   7.780  41.439  1.00 50.52    -0.578 OA
HETATM   35  O3S SGN C   2       2.956   9.068  39.789  1.00 54.39    -0.578 OA
ENDBRANCH  30  32
ENDBRANCH  24  30
BRANCH  25  36
HETATM   36  O4  BDP C   1       2.061  11.257  43.061  1.00 42.04    -0.348 OA
BRANCH  36  37
HETATM   37  C4  BDP C   1       0.743  11.661  42.912  1.00 48.48     0.195 C 
HETATM   38  C3  BDP C   1      -0.080  10.495  42.477  1.00 51.01     0.181 C 
HETATM   39  C2  BDP C   1      -1.539  10.758  42.621  1.00 53.01     0.173 C 
HETATM   40  C1  BDP C   1      -1.865  11.301  43.970  1.00 54.14     0.203 C 
HETATM   41  O5  BDP C   1      -1.111  12.437  44.179  1.00 54.15    -0.370 OA
HETATM   42  C5  BDP C   1       0.254  12.186  44.238  1.00 51.87     0.253 C 
BRANCH  38  43
HETATM   43  O3  BDP C   1       0.173  10.222  41.147  1.00 52.92    -0.390 OA
ATOM     44  H3  BDP C   1       0.809  10.855  40.835  1.00  0.00     0.210 HD
ENDBRANCH  38  43
BRANCH  39  45
HETATM   45  O2  BDP C   1      -2.234   9.577  42.449  1.00 53.19    -0.391 OA
ATOM     46  H2  BDP C   1      -1.945   9.176  41.638  1.00  0.00     0.210 HD
ENDBRANCH  39  45
BRANCH  42  47
HETATM   47  C6  BDP C   1       0.959  13.442  44.651  1.00 51.57     0.205 C 
HETATM   48  O6A BDP C   1       1.623  13.465  45.719  1.00 52.65    -0.646 OA
HETATM   49  O6B BDP C   1       0.881  14.476  43.933  1.00 51.09    -0.646 OA
ENDBRANCH  42  47
ENDBRANCH  36  37
ENDBRANCH  25  36
BRANCH  27  50
HETATM   50  C6  SGN C   2       4.384  14.709  42.940  1.00 42.92     0.227 C 
BRANCH  50  51
HETATM   51  O6  SGN C   2       5.228  15.053  41.863  1.00 46.75    -0.254 OA
BRANCH  51  52
HETATM   52  S2  SGN C   2       4.783  16.141  40.831  1.00 56.56     0.251 S 
HETATM   53  O4S SGN C   2       5.994  16.824  40.379  1.00 58.52    -0.572 OA
HETATM   54  O5S SGN C   2       4.097  15.471  39.732  1.00 53.95    -0.572 OA
HETATM   55  O6S SGN C   2       3.874  17.043  41.525  1.00 54.13    -0.572 OA
ENDBRANCH  51  52
ENDBRANCH  50  51
ENDBRANCH  27  50
ENDBRANCH  21  22
ENDBRANCH  11  21
BRANCH  13  56
HETATM   56  C6  IDS C   3       9.422  10.188  44.286  1.00 33.29     0.206 C 
HETATM   57  O6A IDS C   3       9.314   9.040  44.789  1.00 34.35    -0.646 OA
HETATM   58  O6B IDS C   3      10.305  10.409  43.414  1.00 34.80    -0.646 OA
ENDBRANCH  13  56
ENDBRANCH   7   8
ENDBRANCH   1   7
BRANCH   2  59
HETATM   59  N2  SGN C   4      11.891  13.769  47.803  1.00 24.47    -0.289 N 
ATOM     60  H2  SGN C   4      11.444  14.328  47.076  1.00  0.00     0.175 HD
BRANCH  59  61
HETATM   61  S1  SGN C   4      12.201  14.377  49.247  1.00 23.01     0.205 S 
HETATM   62  O1S SGN C   4      12.883  15.647  49.069  1.00 23.82    -0.578 OA
HETATM   63  O2S SGN C   4      10.928  14.573  49.932  1.00 21.15    -0.578 OA
HETATM   64  O3S SGN C   4      13.036  13.380  49.912  1.00 24.34    -0.578 OA
ENDBRANCH  59  61
ENDBRANCH   2  59
BRANCH   3  65
HETATM   65  O3  SGN C   4      14.528  13.031  47.052  1.00 24.01    -0.391 OA
ATOM     66  H3  SGN C   4      14.240  13.690  47.672  1.00  0.00     0.210 HD
ENDBRANCH   3  65
BRANCH   5  67
HETATM   67  C6  SGN C   4      12.765   8.649  45.642  1.00 29.42     0.227 C 
BRANCH  67  68
HETATM   68  O6  SGN C   4      13.875   8.208  46.391  1.00 33.38    -0.254 OA
BRANCH  68  69
HETATM   69  S2  SGN C   4      14.152   6.664  46.461  1.00 42.75     0.251 S 
HETATM   70  O4S SGN C   4      12.881   5.979  46.267  1.00 44.95    -0.572 OA
HETATM   71  O5S SGN C   4      15.118   6.386  45.408  1.00 42.87    -0.572 OA
HETATM   72  O6S SGN C   4      14.730   6.391  47.772  1.00 40.27    -0.572 OA
ENDBRANCH  68  69
ENDBRANCH  67  68
ENDBRANCH   5  67
BRANCH   4  73
HETATM   73  O4  SGN C   4      14.661  10.898  45.136  1.00 25.89    -0.348 OA
BRANCH  73  74
HETATM   74  C1  BDP C   5      16.018  11.263  45.466  1.00 28.36     0.292 C 
HETATM   75  C2  BDP C   5      16.969  10.211  44.978  1.00 31.13     0.204 C 
HETATM   76  C3  BDP C   5      18.361  10.518  45.404  1.00 33.85     0.183 C 
HETATM   77  C4  BDP C   5      18.755  11.910  45.038  1.00 31.81     0.195 C 
HETATM   78  C5  BDP C   5      17.652  12.876  45.408  1.00 27.14     0.257 C 
HETATM   79  O5  BDP C   5      16.413  12.468  44.908  1.00 24.75    -0.340 OA
BRANCH  75  80
HETATM   80  O2  BDP C   5      16.624   8.966  45.482  1.00 34.37    -0.388 OA
ATOM     81  H2  BDP C   5      16.839   8.280  44.861  1.00  0.00     0.210 HD
ENDBRANCH  75  80
BRANCH  76  82
HETATM   82  O3  BDP C   5      19.200   9.611  44.785  1.00 34.34    -0.390 OA
ATOM     83  H3  BDP C   5      18.973   8.743  45.100  1.00  0.00     0.210 HD
ENDBRANCH  76  82
BRANCH  77  84
HETATM   84  O4  BDP C   5      19.897  12.276  45.749  1.00 33.34    -0.348 OA
BRANCH  84  85
HETATM   85  C1  NGY C   6      21.104  12.306  44.952  1.00 35.33     0.286 C 
HETATM   86  C2  NGY C   6      22.270  12.044  45.848  1.00 39.33     0.170 C 
HETATM   87  C3  NGY C   6      22.404  13.188  46.792  1.00 39.13     0.177 C 
HETATM   88  C4  NGY C   6      22.610  14.431  46.000  1.00 37.06     0.180 C 
HETATM   89  C5  NGY C   6      21.420  14.601  45.113  1.00 32.98     0.181 C 
HETATM   90  O5  NGY C   6      21.314  13.500  44.289  1.00 32.46    -0.349 OA
BRANCH  86  91
HETATM   91  N2  NGY C   6      22.036  10.848  46.597  1.00 39.90    -0.349 N 
HETATM   92  C7  NGY C   6      22.488   9.586  46.105  1.00 44.73     0.214 C 
HETATM   93  O7  NGY C   6      23.079   9.519  45.036  1.00 46.19    -0.274 OA
HETATM   94  C8  NGY C   6      22.231   8.354  46.906  1.00 43.79     0.117 C 
ATOM     95  H2  NGY C   6      21.543  10.897  47.489  1.00  0.00     0.163 HD
ENDBRANCH  86  91
BRANCH  87  96
HETATM   96  O3  NGY C   6      23.467  12.982  47.645  1.00 44.02    -0.391 OA
ATOM     97  H3  NGY C   6      23.906  12.166  47.435  1.00  0.00     0.210 HD
ENDBRANCH  87  96
BRANCH  88  98
HETATM   98  O4  NGY C   6      22.719  15.505  46.855  1.00 37.39    -0.390 OA
ATOM     99  H4  NGY C   6      22.466  16.299  46.398  1.00  0.00     0.210 HD
ENDBRANCH  88  98
BRANCH  89 100
HETATM  100  C6  NGY C   6      21.513  15.859  44.307  1.00 31.91     0.227 C 
BRANCH 100 101
HETATM  101  O6  NGY C   6      20.904  16.925  44.942  1.00 36.15    -0.254 OA
BRANCH 101 102
HETATM  102  S   NGY C   6      21.693  18.130  45.283  1.00 34.85     0.251 S 
HETATM  103  O7A NGY C   6      21.567  18.433  46.685  1.00 33.41    -0.572 OA
HETATM  104  O8  NGY C   6      21.133  19.208  44.469  1.00 30.21    -0.572 OA
HETATM  105  O9  NGY C   6      23.080  17.893  44.963  1.00 38.01    -0.572 OA
ENDBRANCH 101 102
ENDBRANCH 100 101
ENDBRANCH  89 100
ENDBRANCH  84  85
ENDBRANCH  77  84
BRANCH  78 106
HETATM  106  C6  BDP C   5      17.939  14.283  44.979  1.00 29.31     0.206 C 
HETATM  107  O6A BDP C   5      17.986  15.199  45.838  1.00 32.10    -0.646 OA
HETATM  108  O6B BDP C   5      18.114  14.559  43.764  1.00 26.46    -0.646 OA
ENDBRANCH  78 106
ENDBRANCH  73  74
ENDBRANCH   4  73
TORSDOF 38
ENDMDL
